81
F29_F4_F6_F5_F35_F27
F 7.5191 -0.4893 0.2975
C 11.6214 -1.2591 -1.4908
C 11.3477 -1.6036 -0.1702
C 10.585999999999999 -1.1545 -2.432
C 10.0289 -1.8537 0.2475
C 9.2614 -1.4039 -2.0202
C 8.951699999999999 -1.758 -0.6763
N 12.9247 -1.0563 -1.7161
S 12.7655 -1.6749 0.8157
C 13.6719 -1.2327 -0.6117
H 10.7895 -0.9013 -3.4015
H 9.861799999999999 -2.1045 1.2244
H 8.5191 -1.3233 -2.7188
C 16.903100000000002 -2.5141 -0.7382
C 16.8276 -2.9815 0.735
N 15.6516 -2.4707 1.4256
C 15.7103 -1.5278 2.4314
O 14.6719 -1.2281 3.0748
C 16.928 -0.781 2.8637
H 17.8308 -2.8669 -1.1929
H 16.0644 -2.9129 -1.3116
H 16.880300000000002 -1.4245 -0.792
H 17.7587 -2.6878 1.2157
H 16.8393 -4.0742 0.7577
H 17.6783 -1.5006 3.1989
H 16.7059 -0.1571 3.7356
C 21.9232 1.0354 -0.3588
C 21.5866 0.551 0.925
C 20.8977 1.2778 -1.2995
C 20.2299 0.3151 1.2481
C 19.553 1.0405 -0.9679
C 19.1988 0.5532 0.3099
H 21.1202 1.6292 -2.2325
H 19.9899 -0.0373 2.1765
H 18.8308 1.2292 -1.6678
C 30.090500000000002 -5.879 -2.4937
O 22.9232 3.6951 1.572
C 24.235800000000005 3.2206 1.9053
C 24.893300000000004 2.4552 0.7286
C 26.299400000000002 1.9037 1.0854
C 26.957600000000003 1.1364 -0.093
C 28.361700000000003 0.5796 0.267
C 28.995600000000003 -0.1361 -0.8623
N 28.436800000000005 -1.2841 -1.3163
C 28.913500000000003 -2.0979 -2.3917
C 29.259700000000002 -3.5166 -1.8761
C 29.745400000000004 -4.4629 -3.0064
O 30.044200000000004 0.3317 -1.3674
H 29.212700000000005 -6.3455 -2.0422
H 30.889700000000005 -5.8314 -1.7513
H 30.425600000000003 -6.5011 -3.3259
H 24.200000000000003 2.61 2.8094
H 24.843100000000003 4.1001 2.1288
H 24.977100000000004 3.1357 -0.1232
H 24.251100000000005 1.6247 0.4294
H 26.209200000000003 1.2293 1.9418
H 26.945800000000002 2.7375 1.3741
H 27.051300000000005 1.8115 -0.949
H 26.303900000000002 0.3082 -0.3822
H 28.279300000000003 -0.1101 1.1112
H 29.000100000000003 1.411 0.5809
H 27.631400000000003 -1.5868 -0.8673
H 29.791000000000004 -1.6647 -2.8797
H 28.1151 -2.1641 -3.1341
H 28.372500000000002 -3.9496 -1.4045
H 30.043100000000003 -3.4339 -1.1171
H 28.965300000000003 -4.5494 -3.7677
H 30.6355 -4.038 -3.4785
C 32.56700000000001 -1.765 1.6205
C 33.761900000000004 -0.9944 2.0677
C 36.285700000000006 -0.5753 1.7363
O 37.434200000000004 -1.0065 0.9941
C 35.051300000000005 -1.3982 1.301
O 32.1897 -2.6465 2.4316
H 33.94120000000001 -1.1731 3.1334
H 33.56830000000001 0.0754 1.9702
H 36.46860000000001 -0.7204 2.8042
H 36.10680000000001 0.4858 1.5435
H 35.256800000000005 -2.4573 1.482
H 34.911300000000004 -1.265 0.2261
H 31.889700000000005 -1.5876 0.4342
