55
F22_F4_F6_F5_F25_F27
C -8.4552 -2.5577 -1.2042
C -7.4938 -1.9296 -0.4001
H -9.4284 -2.5872 -0.8941
H -8.2235 -2.992 -2.0963
H -7.853 -1.5315 0.4731
C -3.3915 -1.2591 -1.4908
C -3.6652000000000005 -1.6036 -0.1702
C -4.426900000000001 -1.1545 -2.432
C -4.984 -1.8537 0.2475
C -5.7515 -1.4039 -2.0202
C -6.0612 -1.758 -0.6763
N -2.0882000000000005 -1.0563 -1.7161
S -2.2474000000000003 -1.6749 0.8157
C -1.3410000000000002 -1.2327 -0.6117
H -4.223400000000001 -0.9013 -3.4015
H -5.1511000000000005 -2.1045 1.2244
H -6.4938 -1.3233 -2.7188
C 1.8901999999999999 -2.5141 -0.7382
C 1.8146999999999998 -2.9815 0.735
N 0.6386999999999998 -2.4707 1.4256
C 0.6973999999999998 -1.5278 2.4314
O -0.3410000000000002 -1.2281 3.0748
C 1.9150999999999998 -0.781 2.8637
H 2.8179 -2.8669 -1.1929
H 1.0514999999999999 -2.9129 -1.3116
H 1.8673999999999997 -1.4245 -0.792
H 2.7458 -2.6878 1.2157
H 1.8263999999999998 -4.0742 0.7577
H 2.6654 -1.5006 3.1989
H 1.6929999999999998 -0.1571 3.7356
C 6.9103 1.0354 -0.3588
C 6.5737 0.551 0.925
C 5.8848 1.2778 -1.2995
C 5.217 0.3151 1.2481
C 4.5401 1.0405 -0.9679
C 4.1859 0.5532 0.3099
H 6.1073 1.6292 -2.2325
H 4.977 -0.0373 2.1765
H 3.8179 1.2292 -1.6678
N 8.553 1.3119 2.3492
H 7.9103 1.5171 3.0466
H 9.4832 1.5619 2.4652
C 11.160499999999997 -1.765 1.6205
C 12.355399999999998 -0.9944 2.0677
C 14.879199999999997 -0.5753 1.7363
O 16.027699999999996 -1.0065 0.9941
C 13.644799999999996 -1.3982 1.301
O 10.783199999999997 -2.6465 2.4316
H 12.534699999999997 -1.1731 3.1334
H 12.161799999999998 0.0754 1.9702
H 15.062099999999997 -0.7204 2.8042
H 14.700299999999999 0.4858 1.5435
H 13.850299999999997 -2.4573 1.482
H 13.504799999999998 -1.265 0.2261
H 10.483199999999998 -1.5876 0.4342
