74
F43_F4_F6_F5_F35_F25
F -9.1072 -3.8069 0.1789
F -9.8111 -2.7747 1.9987
C -9.1891 -2.5777 0.7877
F -10.0187 -1.7758 0.0413
C -5.004900000000001 -1.2591 -1.4908
C -5.278600000000001 -1.6036 -0.1702
C -6.040300000000001 -1.1545 -2.432
C -6.5974 -1.8537 0.2475
C -7.3649000000000004 -1.4039 -2.0202
C -7.674600000000001 -1.758 -0.6763
N -3.701600000000001 -1.0563 -1.7161
S -3.8608000000000007 -1.6749 0.8157
C -2.9544000000000006 -1.2327 -0.6117
H -5.836800000000001 -0.9013 -3.4015
H -6.764500000000001 -2.1045 1.2244
H -8.1072 -1.3233 -2.7188
C 0.2767999999999995 -2.5141 -0.7382
C 0.20129999999999937 -2.9815 0.735
N -0.9747000000000006 -2.4707 1.4256
C -0.9160000000000006 -1.5278 2.4314
O -1.9544000000000006 -1.2281 3.0748
C 0.3016999999999994 -0.781 2.8637
H 1.2044999999999995 -2.8669 -1.1929
H -0.5619000000000005 -2.9129 -1.3116
H 0.25399999999999934 -1.4245 -0.792
H 1.1323999999999996 -2.6878 1.2157
H 0.2129999999999994 -4.0742 0.7577
H 1.0519999999999996 -1.5006 3.1989
H 0.07959999999999945 -0.1571 3.7356
C 5.2969 1.0354 -0.3588
C 4.960299999999999 0.551 0.925
C 4.2714 1.2778 -1.2995
C 3.6035999999999992 0.3151 1.2481
C 2.9266999999999994 1.0405 -0.9679
C 2.5725 0.5532 0.3099
H 4.4939 1.6292 -2.2325
H 3.3636 -0.0373 2.1765
H 2.2044999999999995 1.2292 -1.6678
C 13.464199999999998 -5.879 -2.4937
O 6.2969 3.6951 1.572
C 7.6095 3.2206 1.9053
C 8.267 2.4552 0.7286
C 9.6731 1.9037 1.0854
C 10.331299999999999 1.1364 -0.093
C 11.735399999999998 0.5796 0.267
C 12.369299999999999 -0.1361 -0.8623
N 11.810500000000001 -1.2841 -1.3163
C 12.287199999999999 -2.0979 -2.3917
C 12.6334 -3.5166 -1.8761
C 13.1191 -4.4629 -3.0064
O 13.4179 0.3317 -1.3674
H 12.586400000000001 -6.3455 -2.0422
H 14.2634 -5.8314 -1.7513
H 13.799299999999999 -6.5011 -3.3259
H 7.5737 2.61 2.8094
H 8.2168 4.1001 2.1288
H 8.3508 3.1357 -0.1232
H 7.6248000000000005 1.6247 0.4294
H 9.582899999999999 1.2293 1.9418
H 10.3195 2.7375 1.3741
H 10.425 1.8115 -0.949
H 9.6776 0.3082 -0.3822
H 11.652999999999999 -0.1101 1.1112
H 12.3738 1.411 0.5809
H 11.005099999999999 -1.5868 -0.8673
H 13.1647 -1.6647 -2.8797
H 11.4888 -2.1641 -3.1341
H 11.7462 -3.9496 -1.4045
H 13.416799999999999 -3.4339 -1.1171
H 12.338999999999999 -4.5494 -3.7677
H 14.0092 -4.038 -3.4785
N 15.906100000000002 1.3119 2.3492
H 15.2634 1.5171 3.0466
H 16.8363 1.5619 2.4652
