20
#######
C -7.1979 -1.2049 -2.1476
C -6.843 0.3071 -2.2725
O -6.181 -2.0071 -1.5257
O -5.5541 0.6628 -1.7464
C -2.5269 -0.6121 -0.1079
C -2.8441 -1.9663 0.0044
C -3.4278 0.2936 -0.696
C -4.074 -2.4581 -0.4685
C -4.664 -0.1884 -1.1737
C -4.986 -1.5598 -1.0603
N -1.3207 -0.3199 0.3919
S -1.5942 -2.8922 0.7571
C -0.6923 -1.4008 0.8879
H -7.3852 -1.6207 -3.1399
H -8.1126 -1.3196 -1.562
H -7.5905 0.9039 -1.7455
H -6.8633 0.6028 -3.3236
H -3.1896 1.2846 -0.7754
H -4.303 -3.4507 -0.3846
H 0.5408 -1.234 1.4206