78
F3_F4_F1_F5_F11_F35
O -8.6842 -1.9254 -1.0429
N -7.7509 -1.998 -0.2865
O -8.0442 -2.2992 0.8413
C -3.6485999999999996 -1.2591 -1.4908
C -3.9223 -1.6036 -0.1702
C -4.684 -1.1545 -2.432
C -5.241099999999999 -1.8537 0.2475
C -6.0085999999999995 -1.4039 -2.0202
C -6.3183 -1.758 -0.6763
N -2.3453 -1.0563 -1.7161
S -2.5044999999999997 -1.6749 0.8157
C -1.5980999999999996 -1.2327 -0.6117
H -4.4805 -0.9013 -3.4015
H -5.4082 -2.1045 1.2244
H -6.7509 -1.3233 -2.7188
N -0.5980999999999997 -1.0549 -0.7103
C 0.34950000000000025 -1.1772 0.2523
O 0.08070000000000027 -1.4996 1.4339
C 1.7685000000000002 -0.9304 -0.0912
C 2.3516000000000004 0.3041 0.6508
H -0.27459999999999973 -0.8048 -1.5905
H 1.8671000000000002 -0.7816 -1.1703
H 2.3468000000000004 -1.8209 0.1705
H 1.7688000000000001 1.1946 0.3974
H 2.2413000000000003 0.1491 1.7283
C 6.444000000000001 1.0354 -0.3588
C 6.1074 0.551 0.925
C 5.418500000000001 1.2778 -1.2995
C 4.7507 0.3151 1.2481
C 4.0738 1.0405 -0.9679
C 3.7196000000000007 0.5532 0.3099
H 5.641000000000001 1.6292 -2.2325
H 4.510700000000001 -0.0373 2.1765
H 3.3516000000000004 1.2292 -1.6678
O 7.444000000000001 -1.4963 -0.5423
C 8.864 -1.5749 -0.7185
C 9.185500000000001 -1.7276 -2.2225
C 10.7012 -1.8202 -2.5058
H 9.2516 -2.4386 -0.1724
H 9.3295 -0.663 -0.3361
H 8.7772 -0.8701 -2.764
H 8.700000000000001 -2.6308 -2.6017
H 11.1316 -2.6859 -1.9984
H 11.209100000000001 -0.9171 -2.1614
H 10.869800000000001 -1.9265 -3.579
C 19.3764 -5.879 -2.4937
O 12.209100000000001 3.6951 1.572
C 13.521700000000001 3.2206 1.9053
C 14.179200000000002 2.4552 0.7286
C 15.5853 1.9037 1.0854
C 16.2435 1.1364 -0.093
C 17.6476 0.5796 0.267
C 18.2815 -0.1361 -0.8623
N 17.722700000000003 -1.2841 -1.3163
C 18.1994 -2.0979 -2.3917
C 18.5456 -3.5166 -1.8761
C 19.0313 -4.4629 -3.0064
O 19.3301 0.3317 -1.3674
H 18.498600000000003 -6.3455 -2.0422
H 20.175600000000003 -5.8314 -1.7513
H 19.7115 -6.5011 -3.3259
H 13.4859 2.61 2.8094
H 14.129000000000001 4.1001 2.1288
H 14.263000000000002 3.1357 -0.1232
H 13.537 1.6247 0.4294
H 15.4951 1.2293 1.9418
H 16.2317 2.7375 1.3741
H 16.337200000000003 1.8115 -0.949
H 15.5898 0.3082 -0.3822
H 17.5652 -0.1101 1.1112
H 18.286 1.411 0.5809
H 16.9173 -1.5868 -0.8673
H 19.076900000000002 -1.6647 -2.8797
H 17.401 -2.1641 -3.1341
H 17.6584 -3.9496 -1.4045
H 19.329 -3.4339 -1.1171
H 18.2512 -4.5494 -3.7677
H 19.9214 -4.038 -3.4785
