21
#######
O 9.4754 0.9178 0.873
O 3.6012 0.2632 -0.6826
C 4.6233 0.2662 0.3221
C 5.9882 0.5724 -0.3364
C 7.1572 0.595 0.6861
C 8.4856 0.8841 0.104
O 8.6385 1.1087 -1.2303
C 9.865 1.3975 -1.9124
C 9.5912 1.583 -3.4154
H 4.6617 -0.7134 0.805
H 4.3974 1.0319 1.0686
H 5.9247 1.5443 -0.8343
H 6.1872 -0.1891 -1.0961
H 7.2104 -0.3772 1.1832
H 6.9482 1.354 1.4446
H 10.5684 0.573 -1.7714
H 10.305 2.3129 -1.5087
H 9.1587 0.6719 -3.8331
H 10.5233 1.8032 -3.939
H 8.8955 2.4098 -3.5706
H 2.2563 0.0464 -0.593