20
#######
C -2.8017 -1.8497 -0.4404
C -3.1115 -1.3125 0.8102
C -3.818 -2.3088 -1.3087
C -4.4444 -1.2136 1.2407
C -5.1765 -2.2118 -0.8785
C -5.4748 -1.6643 0.3937
N -1.4809 -1.8581 -0.6669
S -1.7234 -0.8121 1.7122
C -0.7735 -1.3496 0.36
C -3.527 -2.856 -2.5795
C -4.5656 -3.3024 -3.4158
C -6.2081 -2.6654 -1.7321
C -5.9026 -3.2073 -2.9933
H 0.5727 -1.2321 0.4052
H -4.6659 -0.8194 2.1576
H -6.444 -1.5891 0.714
H -2.561 -2.9349 -2.9075
H -4.3481 -3.6971 -4.3336
H -7.1884 -2.6054 -1.444
H -6.6546 -3.5332 -3.6047