71
F29_F4_F6_F5_F25_F35
F 7.5191 -0.4893 0.2975
C 11.6214 -1.2591 -1.4908
C 11.3477 -1.6036 -0.1702
C 10.585999999999999 -1.1545 -2.432
C 10.0289 -1.8537 0.2475
C 9.2614 -1.4039 -2.0202
C 8.951699999999999 -1.758 -0.6763
N 12.9247 -1.0563 -1.7161
S 12.7655 -1.6749 0.8157
C 13.6719 -1.2327 -0.6117
H 10.7895 -0.9013 -3.4015
H 9.861799999999999 -2.1045 1.2244
H 8.5191 -1.3233 -2.7188
C 16.903100000000002 -2.5141 -0.7382
C 16.8276 -2.9815 0.735
N 15.6516 -2.4707 1.4256
C 15.7103 -1.5278 2.4314
O 14.6719 -1.2281 3.0748
C 16.928 -0.781 2.8637
H 17.8308 -2.8669 -1.1929
H 16.0644 -2.9129 -1.3116
H 16.880300000000002 -1.4245 -0.792
H 17.7587 -2.6878 1.2157
H 16.8393 -4.0742 0.7577
H 17.6783 -1.5006 3.1989
H 16.7059 -0.1571 3.7356
C 21.9232 1.0354 -0.3588
C 21.5866 0.551 0.925
C 20.8977 1.2778 -1.2995
C 20.2299 0.3151 1.2481
C 19.553 1.0405 -0.9679
C 19.1988 0.5532 0.3099
H 21.1202 1.6292 -2.2325
H 19.9899 -0.0373 2.1765
H 18.8308 1.2292 -1.6678
N 23.565900000000003 1.3119 2.3492
H 22.9232 1.5171 3.0466
H 24.496100000000002 1.5619 2.4652
C 32.6634 -5.879 -2.4937
O 25.496100000000002 3.6951 1.572
C 26.8087 3.2206 1.9053
C 27.466200000000004 2.4552 0.7286
C 28.872300000000003 1.9037 1.0854
C 29.530500000000004 1.1364 -0.093
C 30.934600000000003 0.5796 0.267
C 31.568500000000004 -0.1361 -0.8623
N 31.009700000000002 -1.2841 -1.3163
C 31.486400000000003 -2.0979 -2.3917
C 31.832600000000003 -3.5166 -1.8761
C 32.3183 -4.4629 -3.0064
O 32.61710000000001 0.3317 -1.3674
H 31.785600000000002 -6.3455 -2.0422
H 33.4626 -5.8314 -1.7513
H 32.99850000000001 -6.5011 -3.3259
H 26.772900000000003 2.61 2.8094
H 27.416000000000004 4.1001 2.1288
H 27.550000000000004 3.1357 -0.1232
H 26.824000000000005 1.6247 0.4294
H 28.782100000000003 1.2293 1.9418
H 29.518700000000003 2.7375 1.3741
H 29.624200000000002 1.8115 -0.949
H 28.876800000000003 0.3082 -0.3822
H 30.852200000000003 -0.1101 1.1112
H 31.573000000000004 1.411 0.5809
H 30.204300000000003 -1.5868 -0.8673
H 32.3639 -1.6647 -2.8797
H 30.688000000000002 -2.1641 -3.1341
H 30.945400000000003 -3.9496 -1.4045
H 32.616 -3.4339 -1.1171
H 31.538200000000003 -4.5494 -3.7677
H 33.208400000000005 -4.038 -3.4785
