76
F4_F6_F5_F32_F35
C -3.7933 -1.2591 -1.4908
C -4.067 -1.6036 -0.1702
C -4.8287 -1.1545 -2.432
C -5.3858 -1.8537 0.2475
C -6.1533 -1.4039 -2.0202
C -6.463 -1.758 -0.6763
N -2.49 -1.0563 -1.7161
S -2.6492 -1.6749 0.8157
C -1.7428 -1.2327 -0.6117
H -4.6252 -0.9013 -3.4015
H -5.5529 -2.1045 1.2244
H -6.8956 -1.3233 -2.7188
H -7.7509 -1.998 -0.2865
C 1.4884000000000002 -2.5141 -0.7382
C 1.4129 -2.9815 0.735
N 0.2369000000000001 -2.4707 1.4256
C 0.2956000000000001 -1.5278 2.4314
O -0.7427999999999999 -1.2281 3.0748
C 1.5133 -0.781 2.8637
H 2.4161 -2.8669 -1.1929
H 0.6497000000000002 -2.9129 -1.3116
H 1.4656 -1.4245 -0.792
H 2.3440000000000003 -2.6878 1.2157
H 1.4246 -4.0742 0.7577
H 2.2636000000000003 -1.5006 3.1989
H 1.2912000000000001 -0.1571 3.7356
C 6.508500000000001 1.0354 -0.3588
C 6.1719 0.551 0.925
C 5.4830000000000005 1.2778 -1.2995
C 4.8152 0.3151 1.2481
C 4.1383 1.0405 -0.9679
C 3.7841000000000005 0.5532 0.3099
H 5.705500000000001 1.6292 -2.2325
H 4.575200000000001 -0.0373 2.1765
H 3.4161 1.2292 -1.6678
C 9.810300000000002 -1.0292 -0.4521
O 7.508500000000001 -0.455 0.0669
C 8.3263 -1.3728 -0.671
H 10.0597 -1.1021 0.6082
H 10.439499999999999 -1.7241 -1.0112
H 10.014700000000001 -0.0134 -0.7957
H 8.0929 -1.3023 -1.7362
H 8.138000000000002 -2.3935 -0.3291
C 18.6068 -5.879 -2.4937
O 11.439499999999999 3.6951 1.572
C 12.752099999999999 3.2206 1.9053
C 13.4096 2.4552 0.7286
C 14.8157 1.9037 1.0854
C 15.473899999999999 1.1364 -0.093
C 16.878 0.5796 0.267
C 17.511899999999997 -0.1361 -0.8623
N 16.9531 -1.2841 -1.3163
C 17.4298 -2.0979 -2.3917
C 17.776 -3.5166 -1.8761
C 18.261699999999998 -4.4629 -3.0064
O 18.560499999999998 0.3317 -1.3674
H 17.729 -6.3455 -2.0422
H 19.406 -5.8314 -1.7513
H 18.941899999999997 -6.5011 -3.3259
H 12.716299999999999 2.61 2.8094
H 13.359399999999999 4.1001 2.1288
H 13.4934 3.1357 -0.1232
H 12.767399999999999 1.6247 0.4294
H 14.725499999999998 1.2293 1.9418
H 15.4621 2.7375 1.3741
H 15.567599999999999 1.8115 -0.949
H 14.8202 0.3082 -0.3822
H 16.7956 -0.1101 1.1112
H 17.516399999999997 1.411 0.5809
H 16.1477 -1.5868 -0.8673
H 18.307299999999998 -1.6647 -2.8797
H 16.6314 -2.1641 -3.1341
H 16.8888 -3.9496 -1.4045
H 18.559399999999997 -3.4339 -1.1171
H 17.4816 -4.5494 -3.7677
H 19.151799999999998 -4.038 -3.4785
