51
F43_F4_F6_F5_F2_F32
F -9.1072 -3.8069 0.1789
F -9.8111 -2.7747 1.9987
C -9.1891 -2.5777 0.7877
F -10.0187 -1.7758 0.0413
C -5.004900000000001 -1.2591 -1.4908
C -5.278600000000001 -1.6036 -0.1702
C -6.040300000000001 -1.1545 -2.432
C -6.5974 -1.8537 0.2475
C -7.3649000000000004 -1.4039 -2.0202
C -7.674600000000001 -1.758 -0.6763
N -3.701600000000001 -1.0563 -1.7161
S -3.8608000000000007 -1.6749 0.8157
C -2.9544000000000006 -1.2327 -0.6117
H -5.836800000000001 -0.9013 -3.4015
H -6.764500000000001 -2.1045 1.2244
H -8.1072 -1.3233 -2.7188
C 0.2767999999999995 -2.5141 -0.7382
C 0.20129999999999937 -2.9815 0.735
N -0.9747000000000006 -2.4707 1.4256
C -0.9160000000000006 -1.5278 2.4314
O -1.9544000000000006 -1.2281 3.0748
C 0.3016999999999994 -0.781 2.8637
H 1.2044999999999995 -2.8669 -1.1929
H -0.5619000000000005 -2.9129 -1.3116
H 0.25399999999999934 -1.4245 -0.792
H 1.1323999999999996 -2.6878 1.2157
H 0.2129999999999994 -4.0742 0.7577
H 1.0519999999999996 -1.5006 3.1989
H 0.07959999999999945 -0.1571 3.7356
C 5.2969 1.0354 -0.3588
C 4.960299999999999 0.551 0.925
C 4.2714 1.2778 -1.2995
C 3.6035999999999992 0.3151 1.2481
C 2.9266999999999994 1.0405 -0.9679
C 2.5725 0.5532 0.3099
H 4.4939 1.6292 -2.2325
H 3.3636 -0.0373 2.1765
H 2.2044999999999995 1.2292 -1.6678
O 6.9394 0.3316 1.8022
C 6.8852 -0.1508 3.1489
H 7.899300000000001 -0.2004 3.5454
H 6.2969 0.5259 3.7707
H 6.4472000000000005 -1.1498 3.1765
C 11.2011 -1.0292 -0.4521
O 8.8993 -0.455 0.0669
C 9.717100000000002 -1.3728 -0.671
H 11.450500000000002 -1.1021 0.6082
H 11.830300000000001 -1.7241 -1.0112
H 11.4055 -0.0134 -0.7957
H 9.4837 -1.3023 -1.7362
H 9.5288 -2.3935 -0.3291
