90
F16_F4_F6_F5_F35
O -6.8018 -2.9513 -0.8438
C -5.795 -3.6977 -0.8163
N -4.5479 -3.2477 -0.5275
C -5.9855 -5.143 -1.0759
C -5.2415 -5.6557 -2.3399
C -5.7415 -5.0199 -3.6671
C -5.011 -5.5885 -4.9143
C -5.5164 -5.0005 -6.2548
N -5.2246 -3.5675 -6.3765
H -3.8699 -3.938 -0.4501
H -7.0505 -5.3719 -1.1805
H -5.6233 -5.6962 -0.2054
H -4.1692 -5.4708 -2.2295
H -5.383 -6.7388 -2.3953
H -5.5841 -3.9393 -3.6257
H -6.8147 -5.2047 -3.7675
H -5.1546 -6.6722 -4.9448
H -3.938 -5.3958 -4.8273
H -6.593 -5.1549 -6.3535
H -5.0207 -5.5153 -7.0804
H -5.5804 -3.2676 -7.2868
H -5.7826 -3.0847 -5.6694
C 0.2324000000000006 -1.2591 -1.4908
C -0.04129999999999967 -1.6036 -0.1702
C -0.8029999999999999 -1.1545 -2.432
C -1.3600999999999992 -1.8537 0.2475
C -2.1275999999999993 -1.4039 -2.0202
C -2.4372999999999996 -1.758 -0.6763
N 1.5357000000000003 -1.0563 -1.7161
S 1.3765000000000005 -1.6749 0.8157
C 2.2829000000000006 -1.2327 -0.6117
H -0.5994999999999999 -0.9013 -3.4015
H -1.5271999999999997 -2.1045 1.2244
H -2.8698999999999995 -1.3233 -2.7188
C 5.514100000000001 -2.5141 -0.7382
C 5.438600000000001 -2.9815 0.735
N 4.262600000000001 -2.4707 1.4256
C 4.321300000000001 -1.5278 2.4314
O 3.2829000000000006 -1.2281 3.0748
C 5.539000000000001 -0.781 2.8637
H 6.441800000000001 -2.8669 -1.1929
H 4.675400000000001 -2.9129 -1.3116
H 5.491300000000001 -1.4245 -0.792
H 6.369700000000001 -2.6878 1.2157
H 5.4503 -4.0742 0.7577
H 6.289300000000001 -1.5006 3.1989
H 5.3169 -0.1571 3.7356
C 10.534200000000002 1.0354 -0.3588
C 10.197600000000001 0.551 0.925
C 9.508700000000001 1.2778 -1.2995
C 8.840900000000001 0.3151 1.2481
C 8.164000000000001 1.0405 -0.9679
C 7.809800000000001 0.5532 0.3099
H 11.22 0.3316 1.8022
H 9.731200000000001 1.6292 -2.2325
H 8.600900000000001 -0.0373 2.1765
H 7.441800000000001 1.2292 -1.6678
C 19.3873 -5.879 -2.4937
O 12.22 3.6951 1.572
C 13.5326 3.2206 1.9053
C 14.190100000000001 2.4552 0.7286
C 15.5962 1.9037 1.0854
C 16.2544 1.1364 -0.093
C 17.6585 0.5796 0.267
C 18.2924 -0.1361 -0.8623
N 17.733600000000003 -1.2841 -1.3163
C 18.2103 -2.0979 -2.3917
C 18.5565 -3.5166 -1.8761
C 19.0422 -4.4629 -3.0064
O 19.341 0.3317 -1.3674
H 18.509500000000003 -6.3455 -2.0422
H 20.186500000000002 -5.8314 -1.7513
H 19.7224 -6.5011 -3.3259
H 13.4968 2.61 2.8094
H 14.1399 4.1001 2.1288
H 14.273900000000001 3.1357 -0.1232
H 13.5479 1.6247 0.4294
H 15.506 1.2293 1.9418
H 16.2426 2.7375 1.3741
H 16.348100000000002 1.8115 -0.949
H 15.6007 0.3082 -0.3822
H 17.5761 -0.1101 1.1112
H 18.2969 1.411 0.5809
H 16.9282 -1.5868 -0.8673
H 19.0878 -1.6647 -2.8797
H 17.4119 -2.1641 -3.1341
H 17.6693 -3.9496 -1.4045
H 19.3399 -3.4339 -1.1171
H 18.2621 -4.5494 -3.7677
H 19.932299999999998 -4.038 -3.4785
