76
F43_F4_F6_F5_F51_F35
F -9.1072 -3.8069 0.1789
F -9.8111 -2.7747 1.9987
C -9.1891 -2.5777 0.7877
F -10.0187 -1.7758 0.0413
C -5.004900000000001 -1.2591 -1.4908
C -5.278600000000001 -1.6036 -0.1702
C -6.040300000000001 -1.1545 -2.432
C -6.5974 -1.8537 0.2475
C -7.3649000000000004 -1.4039 -2.0202
C -7.674600000000001 -1.758 -0.6763
N -3.701600000000001 -1.0563 -1.7161
S -3.8608000000000007 -1.6749 0.8157
C -2.9544000000000006 -1.2327 -0.6117
H -5.836800000000001 -0.9013 -3.4015
H -6.764500000000001 -2.1045 1.2244
H -8.1072 -1.3233 -2.7188
C 0.2767999999999995 -2.5141 -0.7382
C 0.20129999999999937 -2.9815 0.735
N -0.9747000000000006 -2.4707 1.4256
C -0.9160000000000006 -1.5278 2.4314
O -1.9544000000000006 -1.2281 3.0748
C 0.3016999999999994 -0.781 2.8637
H 1.2044999999999995 -2.8669 -1.1929
H -0.5619000000000005 -2.9129 -1.3116
H 0.25399999999999934 -1.4245 -0.792
H 1.1323999999999996 -2.6878 1.2157
H 0.2129999999999994 -4.0742 0.7577
H 1.0519999999999996 -1.5006 3.1989
H 0.07959999999999945 -0.1571 3.7356
C 5.2969 1.0354 -0.3588
C 4.960299999999999 0.551 0.925
C 4.2714 1.2778 -1.2995
C 3.6035999999999992 0.3151 1.2481
C 2.9266999999999994 1.0405 -0.9679
C 2.5725 0.5532 0.3099
H 4.4939 1.6292 -2.2325
H 3.3636 -0.0373 2.1765
H 2.2044999999999995 1.2292 -1.6678
F 6.296899999999999 -1.2311 0.0678
F 7.129299999999999 0.8016 -0.2701
F 7.314599999999999 -0.1838 1.7431
C 7.330399999999999 -0.3884 0.3852
O 8.554399999999998 -1.008 -0.0307
C 16.7217 -5.879 -2.4937
O 9.554399999999998 3.6951 1.572
C 10.866999999999997 3.2206 1.9053
C 11.524499999999998 2.4552 0.7286
C 12.930599999999998 1.9037 1.0854
C 13.588799999999997 1.1364 -0.093
C 14.992899999999997 0.5796 0.267
C 15.626799999999998 -0.1361 -0.8623
N 15.067999999999998 -1.2841 -1.3163
C 15.544699999999997 -2.0979 -2.3917
C 15.890899999999998 -3.5166 -1.8761
C 16.376599999999996 -4.4629 -3.0064
O 16.675399999999996 0.3317 -1.3674
H 15.843899999999998 -6.3455 -2.0422
H 17.520899999999997 -5.8314 -1.7513
H 17.056799999999996 -6.5011 -3.3259
H 10.831199999999997 2.61 2.8094
H 11.474299999999998 4.1001 2.1288
H 11.608299999999998 3.1357 -0.1232
H 10.882299999999997 1.6247 0.4294
H 12.840399999999997 1.2293 1.9418
H 13.576999999999998 2.7375 1.3741
H 13.682499999999997 1.8115 -0.949
H 12.935099999999998 0.3082 -0.3822
H 14.910499999999997 -0.1101 1.1112
H 15.631299999999998 1.411 0.5809
H 14.262599999999997 -1.5868 -0.8673
H 16.422199999999997 -1.6647 -2.8797
H 14.746299999999998 -2.1641 -3.1341
H 15.003699999999998 -3.9496 -1.4045
H 16.674299999999995 -3.4339 -1.1171
H 15.596499999999997 -4.5494 -3.7677
H 17.266699999999997 -4.038 -3.4785
