73
F4_F1_F5_F32_F35
C -3.7933 -1.2591 -1.4908
C -4.067 -1.6036 -0.1702
C -4.8287 -1.1545 -2.432
C -5.3858 -1.8537 0.2475
C -6.1533 -1.4039 -2.0202
C -6.463 -1.758 -0.6763
N -2.49 -1.0563 -1.7161
S -2.6492 -1.6749 0.8157
C -1.7428 -1.2327 -0.6117
H -4.6252 -0.9013 -3.4015
H -5.5529 -2.1045 1.2244
H -6.8956 -1.3233 -2.7188
H -7.7509 -1.998 -0.2865
N -0.7428 -1.0549 -0.7103
C 0.20479999999999998 -1.1772 0.2523
O -0.064 -1.4996 1.4339
C 1.6238 -0.9304 -0.0912
C 2.2069 0.3041 0.6508
H -0.4193 -0.8048 -1.5905
H 1.7224 -0.7816 -1.1703
H 2.2021 -1.8209 0.1705
H 1.6240999999999999 1.1946 0.3974
H 2.0966 0.1491 1.7283
C 6.299300000000001 1.0354 -0.3588
C 5.9627 0.551 0.925
C 5.2738000000000005 1.2778 -1.2995
C 4.606 0.3151 1.2481
C 3.9291 1.0405 -0.9679
C 3.5749000000000004 0.5532 0.3099
H 5.496300000000001 1.6292 -2.2325
H 4.3660000000000005 -0.0373 2.1765
H 3.2069 1.2292 -1.6678
C 9.6011 -1.0292 -0.4521
O 7.299300000000001 -0.455 0.0669
C 8.1171 -1.3728 -0.671
H 9.8505 -1.1021 0.6082
H 10.2303 -1.7241 -1.0112
H 9.8055 -0.0134 -0.7957
H 7.8837 -1.3023 -1.7362
H 7.928800000000001 -2.3935 -0.3291
C 18.397599999999997 -5.879 -2.4937
O 11.2303 3.6951 1.572
C 12.5429 3.2206 1.9053
C 13.2004 2.4552 0.7286
C 14.6065 1.9037 1.0854
C 15.2647 1.1364 -0.093
C 16.668799999999997 0.5796 0.267
C 17.3027 -0.1361 -0.8623
N 16.7439 -1.2841 -1.3163
C 17.220599999999997 -2.0979 -2.3917
C 17.5668 -3.5166 -1.8761
C 18.0525 -4.4629 -3.0064
O 18.351300000000002 0.3317 -1.3674
H 17.5198 -6.3455 -2.0422
H 19.1968 -5.8314 -1.7513
H 18.7327 -6.5011 -3.3259
H 12.5071 2.61 2.8094
H 13.1502 4.1001 2.1288
H 13.2842 3.1357 -0.1232
H 12.5582 1.6247 0.4294
H 14.5163 1.2293 1.9418
H 15.2529 2.7375 1.3741
H 15.3584 1.8115 -0.949
H 14.611 0.3082 -0.3822
H 16.586399999999998 -0.1101 1.1112
H 17.3072 1.411 0.5809
H 15.9385 -1.5868 -0.8673
H 18.0981 -1.6647 -2.8797
H 16.4222 -2.1641 -3.1341
H 16.6796 -3.9496 -1.4045
H 18.3502 -3.4339 -1.1171
H 17.272399999999998 -4.5494 -3.7677
H 18.9426 -4.038 -3.4785
