71
F48_F4_F1_F5_F35
O -3.7388 -5.2357 -1.3962
S -3.6286 -4.7302 0.1085
N -2.0179 -4.289 0.3877
O -3.9406 -5.9747 1.0477
H -1.5671 -4.7494 1.1133
H -4.7796 -3.456 0.4746
C 2.5352 -1.2591 -1.4908
C 2.2615 -1.6036 -0.1702
C 1.4997999999999996 -1.1545 -2.432
C 0.9427000000000003 -1.8537 0.2475
C 0.17520000000000024 -1.4039 -2.0202
C -0.13450000000000006 -1.758 -0.6763
N 3.8385 -1.0563 -1.7161
S 3.6793 -1.6749 0.8157
C 4.5857 -1.2327 -0.6117
H 1.7032999999999996 -0.9013 -3.4015
H 0.7755999999999998 -2.1045 1.2244
H -0.5670999999999999 -1.3233 -2.7188
N 5.5857 -1.0549 -0.7103
C 6.5333000000000006 -1.1772 0.2523
O 6.264500000000001 -1.4996 1.4339
C 7.9523 -0.9304 -0.0912
C 8.535400000000001 0.3041 0.6508
H 5.9092 -0.8048 -1.5905
H 8.0509 -0.7816 -1.1703
H 8.5306 -1.8209 0.1705
H 7.9526 1.1946 0.3974
H 8.4251 0.1491 1.7283
C 12.6278 1.0354 -0.3588
C 12.2912 0.551 0.925
C 11.602300000000001 1.2778 -1.2995
C 10.9345 0.3151 1.2481
C 10.2576 1.0405 -0.9679
C 9.903400000000001 0.5532 0.3099
H 13.313600000000001 0.3316 1.8022
H 11.824800000000002 1.6292 -2.2325
H 10.694500000000001 -0.0373 2.1765
H 9.535400000000001 1.2292 -1.6678
C 21.4809 -5.879 -2.4937
O 14.313600000000001 3.6951 1.572
C 15.6262 3.2206 1.9053
C 16.2837 2.4552 0.7286
C 17.6898 1.9037 1.0854
C 18.348 1.1364 -0.093
C 19.7521 0.5796 0.267
C 20.386000000000003 -0.1361 -0.8623
N 19.8272 -1.2841 -1.3163
C 20.3039 -2.0979 -2.3917
C 20.650100000000002 -3.5166 -1.8761
C 21.1358 -4.4629 -3.0064
O 21.434600000000003 0.3317 -1.3674
H 20.6031 -6.3455 -2.0422
H 22.2801 -5.8314 -1.7513
H 21.816000000000003 -6.5011 -3.3259
H 15.5904 2.61 2.8094
H 16.2335 4.1001 2.1288
H 16.3675 3.1357 -0.1232
H 15.6415 1.6247 0.4294
H 17.599600000000002 1.2293 1.9418
H 18.3362 2.7375 1.3741
H 18.4417 1.8115 -0.949
H 17.694300000000002 0.3082 -0.3822
H 19.6697 -0.1101 1.1112
H 20.390500000000003 1.411 0.5809
H 19.0218 -1.5868 -0.8673
H 21.1814 -1.6647 -2.8797
H 19.5055 -2.1641 -3.1341
H 19.762900000000002 -3.9496 -1.4045
H 21.433500000000002 -3.4339 -1.1171
H 20.3557 -4.5494 -3.7677
H 22.0259 -4.038 -3.4785
