94
F30_F4_F1_F5_F25_F35
N -8.9623 -2.9315 -3.0318
C -8.2686 -3.8822 -2.3587
C -6.907 -3.7343 -1.7873
C -6.8991 -2.8865 -0.4854
C -5.4778 -2.6555 0.0786
O -4.7002 -1.8766 -0.8413
O -8.8535 -4.9815 -2.2238
C -8.5446 -1.608 -3.3812
C -8.6076 -1.4202 -4.9184
C -8.1014 -0.0399 -5.4203
C -8.9838 1.1593 -5.003
H -9.8534 -3.1827 -3.3235
H -6.2488 -3.2968 -2.5408
H -6.5035 -4.7237 -1.5512
H -7.493 -3.4011 0.2755
H -7.3606 -1.9121 -0.662
H -4.99 -3.617 0.2582
H -5.5549 -2.1192 1.0279
H -7.5356 -1.3777 -3.0369
H -9.2328 -0.9138 -2.8963
H -9.635 -1.5726 -5.2612
H -7.9874 -2.1923 -5.3836
H -8.0661 -0.0673 -6.5129
H -7.0815 0.1268 -5.0636
H -8.6091 2.0711 -5.472
H -8.9619 1.2976 -3.9211
H -10.016 1.0035 -5.3226
C -0.5978999999999997 -1.2591 -1.4908
C -0.8715999999999999 -1.6036 -0.1702
C -1.6333000000000002 -1.1545 -2.432
C -2.1903999999999995 -1.8537 0.2475
C -2.9578999999999995 -1.4039 -2.0202
C -3.2676 -1.758 -0.6763
N 0.7054 -1.0563 -1.7161
S 0.5462000000000002 -1.6749 0.8157
C 1.4526000000000003 -1.2327 -0.6117
H -1.4298000000000002 -0.9013 -3.4015
H -2.3575 -2.1045 1.2244
H -3.7001999999999997 -1.3233 -2.7188
N 2.4526000000000003 -1.0549 -0.7103
C 3.4002000000000003 -1.1772 0.2523
O 3.1314 -1.4996 1.4339
C 4.8192 -0.9304 -0.0912
C 5.4023 0.3041 0.6508
H 2.7761000000000005 -0.8048 -1.5905
H 4.9178 -0.7816 -1.1703
H 5.397500000000001 -1.8209 0.1705
H 4.8195 1.1946 0.3974
H 5.292 0.1491 1.7283
C 9.494700000000002 1.0354 -0.3588
C 9.158100000000001 0.551 0.925
C 8.4692 1.2778 -1.2995
C 7.8014 0.3151 1.2481
C 7.1245 1.0405 -0.9679
C 6.770300000000001 0.5532 0.3099
H 8.6917 1.6292 -2.2325
H 7.561400000000001 -0.0373 2.1765
H 6.4023 1.2292 -1.6678
N 11.137400000000003 1.3119 2.3492
H 10.494700000000002 1.5171 3.0466
H 12.067600000000002 1.5619 2.4652
C 20.234900000000003 -5.879 -2.4937
O 13.067600000000002 3.6951 1.572
C 14.380200000000002 3.2206 1.9053
C 15.037700000000003 2.4552 0.7286
C 16.443800000000003 1.9037 1.0854
C 17.102000000000004 1.1364 -0.093
C 18.506100000000004 0.5796 0.267
C 19.14 -0.1361 -0.8623
N 18.581200000000003 -1.2841 -1.3163
C 19.057900000000004 -2.0979 -2.3917
C 19.404100000000003 -3.5166 -1.8761
C 19.8898 -4.4629 -3.0064
O 20.1886 0.3317 -1.3674
H 19.357100000000003 -6.3455 -2.0422
H 21.034100000000002 -5.8314 -1.7513
H 20.57 -6.5011 -3.3259
H 14.344400000000002 2.61 2.8094
H 14.987500000000002 4.1001 2.1288
H 15.121500000000003 3.1357 -0.1232
H 14.395500000000002 1.6247 0.4294
H 16.3536 1.2293 1.9418
H 17.090200000000003 2.7375 1.3741
H 17.195700000000002 1.8115 -0.949
H 16.448300000000003 0.3082 -0.3822
H 18.423700000000004 -0.1101 1.1112
H 19.1445 1.411 0.5809
H 17.775800000000004 -1.5868 -0.8673
H 19.9354 -1.6647 -2.8797
H 18.259500000000003 -2.1641 -3.1341
H 18.516900000000003 -3.9496 -1.4045
H 20.1875 -3.4339 -1.1171
H 19.109700000000004 -4.5494 -3.7677
H 20.7799 -4.038 -3.4785
