73
F4_F36_F5_F2_F35
C -3.7933 -1.2591 -1.4908
C -4.067 -1.6036 -0.1702
C -4.8287 -1.1545 -2.432
C -5.3858 -1.8537 0.2475
C -6.1533 -1.4039 -2.0202
C -6.463 -1.758 -0.6763
N -2.49 -1.0563 -1.7161
S -2.6492 -1.6749 0.8157
C -1.7428 -1.2327 -0.6117
H -4.6252 -0.9013 -3.4015
H -5.5529 -2.1045 1.2244
H -6.8956 -1.3233 -2.7188
H -7.7509 -1.998 -0.2865
C 0.16710000000000014 1.0327 -1.0278
N -0.056399999999999784 -0.3781 -0.7967
C 0.9866000000000001 -1.2754 -0.7274
O 0.7627000000000002 -2.4978 -0.536
C 2.4347000000000003 -0.9469 -0.8693
C 3.1831 -1.036 0.4894
H -0.7427999999999999 1.6364 -0.97
H 0.8516000000000001 1.4312 -0.2757
H 0.5972000000000002 1.1842 -2.02
H 2.8775000000000004 -1.6462 -1.5844
H 2.5849 0.0502 -1.2835
H 3.1060000000000003 -2.05 0.8925
H 2.6824000000000003 -0.3725 1.2013
C 7.275500000000001 1.0354 -0.3588
C 6.9389 0.551 0.925
C 6.25 1.2778 -1.2995
C 5.5822 0.3151 1.2481
C 4.9053 1.0405 -0.9679
C 4.5511 0.5532 0.3099
H 6.4725 1.6292 -2.2325
H 5.3422 -0.0373 2.1765
H 4.1831 1.2292 -1.6678
O 8.918000000000001 0.3316 1.8022
C 8.863800000000001 -0.1508 3.1489
H 9.877900000000002 -0.2004 3.5454
H 8.275500000000001 0.5259 3.7707
H 8.425800000000002 -1.1498 3.1765
C 18.0452 -5.879 -2.4937
O 10.877900000000002 3.6951 1.572
C 12.190500000000002 3.2206 1.9053
C 12.848000000000003 2.4552 0.7286
C 14.254100000000001 1.9037 1.0854
C 14.912300000000002 1.1364 -0.093
C 16.3164 0.5796 0.267
C 16.950300000000002 -0.1361 -0.8623
N 16.3915 -1.2841 -1.3163
C 16.8682 -2.0979 -2.3917
C 17.2144 -3.5166 -1.8761
C 17.700100000000003 -4.4629 -3.0064
O 17.998900000000003 0.3317 -1.3674
H 17.1674 -6.3455 -2.0422
H 18.8444 -5.8314 -1.7513
H 18.380300000000002 -6.5011 -3.3259
H 12.154700000000002 2.61 2.8094
H 12.797800000000002 4.1001 2.1288
H 12.931800000000003 3.1357 -0.1232
H 12.205800000000002 1.6247 0.4294
H 14.163900000000002 1.2293 1.9418
H 14.900500000000001 2.7375 1.3741
H 15.006000000000002 1.8115 -0.949
H 14.258600000000001 0.3082 -0.3822
H 16.234 -0.1101 1.1112
H 16.954800000000002 1.411 0.5809
H 15.586100000000002 -1.5868 -0.8673
H 17.745700000000003 -1.6647 -2.8797
H 16.0698 -2.1641 -3.1341
H 16.3272 -3.9496 -1.4045
H 17.9978 -3.4339 -1.1171
H 16.92 -4.5494 -3.7677
H 18.590200000000003 -4.038 -3.4785
