68
F13_F4_F1_F5_F25_F35
Cl -6.6508 -0.6791 2.1642
C -2.5485 -1.2591 -1.4908
C -2.8222000000000005 -1.6036 -0.1702
C -3.5839000000000008 -1.1545 -2.432
C -4.141 -1.8537 0.2475
C -4.9085 -1.4039 -2.0202
C -5.2182 -1.758 -0.6763
N -1.2452000000000005 -1.0563 -1.7161
S -1.4044000000000003 -1.6749 0.8157
C -0.4980000000000002 -1.2327 -0.6117
H -3.3804000000000007 -0.9013 -3.4015
H -4.3081000000000005 -2.1045 1.2244
H -5.6508 -1.3233 -2.7188
N 0.5019999999999998 -1.0549 -0.7103
C 1.4495999999999998 -1.1772 0.2523
O 1.1807999999999998 -1.4996 1.4339
C 2.8686 -0.9304 -0.0912
C 3.4516999999999998 0.3041 0.6508
H 0.8254999999999998 -0.8048 -1.5905
H 2.9671999999999996 -0.7816 -1.1703
H 3.4469 -1.8209 0.1705
H 2.8688999999999996 1.1946 0.3974
H 3.3413999999999997 0.1491 1.7283
C 7.5441 1.0354 -0.3588
C 7.2075 0.551 0.925
C 6.5186 1.2778 -1.2995
C 5.8508 0.3151 1.2481
C 5.1739 1.0405 -0.9679
C 4.8197 0.5532 0.3099
H 6.7411 1.6292 -2.2325
H 5.6108 -0.0373 2.1765
H 4.4517 1.2292 -1.6678
N 9.186800000000002 1.3119 2.3492
H 8.5441 1.5171 3.0466
H 10.117 1.5619 2.4652
C 18.2843 -5.879 -2.4937
O 11.117 3.6951 1.572
C 12.4296 3.2206 1.9053
C 13.087100000000001 2.4552 0.7286
C 14.493200000000002 1.9037 1.0854
C 15.1514 1.1364 -0.093
C 16.555500000000002 0.5796 0.267
C 17.1894 -0.1361 -0.8623
N 16.6306 -1.2841 -1.3163
C 17.107300000000002 -2.0979 -2.3917
C 17.453500000000002 -3.5166 -1.8761
C 17.9392 -4.4629 -3.0064
O 18.238 0.3317 -1.3674
H 17.4065 -6.3455 -2.0422
H 19.0835 -5.8314 -1.7513
H 18.6194 -6.5011 -3.3259
H 12.3938 2.61 2.8094
H 13.036900000000001 4.1001 2.1288
H 13.170900000000001 3.1357 -0.1232
H 12.4449 1.6247 0.4294
H 14.403 1.2293 1.9418
H 15.139600000000002 2.7375 1.3741
H 15.2451 1.8115 -0.949
H 14.497700000000002 0.3082 -0.3822
H 16.473100000000002 -0.1101 1.1112
H 17.1939 1.411 0.5809
H 15.8252 -1.5868 -0.8673
H 17.9848 -1.6647 -2.8797
H 16.3089 -2.1641 -3.1341
H 16.566300000000002 -3.9496 -1.4045
H 18.2369 -3.4339 -1.1171
H 17.159100000000002 -4.5494 -3.7677
H 18.8293 -4.038 -3.4785
