38
F4_F6_F5_F9
C -3.7933 -1.2591 -1.4908
C -4.067 -1.6036 -0.1702
C -4.8287 -1.1545 -2.432
C -5.3858 -1.8537 0.2475
C -6.1533 -1.4039 -2.0202
C -6.463 -1.758 -0.6763
N -2.49 -1.0563 -1.7161
S -2.6492 -1.6749 0.8157
C -1.7428 -1.2327 -0.6117
H -4.6252 -0.9013 -3.4015
H -5.5529 -2.1045 1.2244
H -6.8956 -1.3233 -2.7188
H -7.7509 -1.998 -0.2865
C 1.4884000000000002 -2.5141 -0.7382
C 1.4129 -2.9815 0.735
N 0.2369000000000001 -2.4707 1.4256
C 0.2956000000000001 -1.5278 2.4314
O -0.7427999999999999 -1.2281 3.0748
C 1.5133 -0.781 2.8637
H 2.4161 -2.8669 -1.1929
H 0.6497000000000002 -2.9129 -1.3116
H 1.4656 -1.4245 -0.792
H 2.3440000000000003 -2.6878 1.2157
H 1.4246 -4.0742 0.7577
H 2.2636000000000003 -1.5006 3.1989
H 1.2912000000000001 -0.1571 3.7356
C 6.508500000000001 1.0354 -0.3588
C 6.1719 0.551 0.925
C 5.4830000000000005 1.2778 -1.2995
C 4.8152 0.3151 1.2481
C 4.1383 1.0405 -0.9679
C 3.7841000000000005 0.5532 0.3099
H 7.1943 0.3316 1.8022
H 5.705500000000001 1.6292 -2.2325
H 4.575200000000001 -0.0373 2.1765
H 3.4161 1.2292 -1.6678
O 8.194300000000002 -2.9391 2.0505
H 9.422500000000001 -3.1549 1.947
