46
F17_F4_F1_F5_F27
Br -6.7767 0.0257 -3.1439
C -2.6744 -1.2591 -1.4908
C -2.9481 -1.6036 -0.1702
C -3.7098000000000004 -1.1545 -2.432
C -4.2669 -1.8537 0.2475
C -5.0344 -1.4039 -2.0202
C -5.3441 -1.758 -0.6763
N -1.3711000000000002 -1.0563 -1.7161
S -1.5303 -1.6749 0.8157
C -0.6238999999999999 -1.2327 -0.6117
H -3.5063000000000004 -0.9013 -3.4015
H -4.434 -2.1045 1.2244
H -5.7767 -1.3233 -2.7188
N 0.3761000000000001 -1.0549 -0.7103
C 1.3237 -1.1772 0.2523
O 1.0549000000000002 -1.4996 1.4339
C 2.7427 -0.9304 -0.0912
C 3.3258 0.3041 0.6508
H 0.6996000000000001 -0.8048 -1.5905
H 2.8413 -0.7816 -1.1703
H 3.321 -1.8209 0.1705
H 2.743 1.1946 0.3974
H 3.2155 0.1491 1.7283
C 7.418200000000001 1.0354 -0.3588
C 7.0816 0.551 0.925
C 6.3927000000000005 1.2778 -1.2995
C 5.7249 0.3151 1.2481
C 5.048 1.0405 -0.9679
C 4.6938 0.5532 0.3099
H 8.104 0.3316 1.8022
H 6.615200000000001 1.6292 -2.2325
H 5.4849000000000006 -0.0373 2.1765
H 4.3258 1.2292 -1.6678
C 9.7813 -1.765 1.6205
C 10.9762 -0.9944 2.0677
C 13.5 -0.5753 1.7363
O 14.6485 -1.0065 0.9941
C 12.2656 -1.3982 1.301
O 9.404 -2.6465 2.4316
H 11.1555 -1.1731 3.1334
H 10.7826 0.0754 1.9702
H 13.6829 -0.7204 2.8042
H 13.321100000000001 0.4858 1.5435
H 12.4711 -2.4573 1.482
H 12.1256 -1.265 0.2261
H 9.104000000000001 -1.5876 0.4342
