51
F50_F4_F1_F5_F11_F9
C -7.6964 -3.3071 -0.5026
C -7.5919 -1.8719 0.0625
H -8.7016 -3.6971 -0.3315
H -7.5024 -3.3076 -1.5774
H -6.9821 -3.9715 -0.0125
H -8.3821 -1.2729 -0.3988
H -7.7939 -1.8921 1.1367
C -2.8798 -1.2591 -1.4908
C -3.1535 -1.6036 -0.1702
C -3.9152000000000005 -1.1545 -2.432
C -4.4723 -1.8537 0.2475
C -5.2398 -1.4039 -2.0202
C -5.5495 -1.758 -0.6763
N -1.5765000000000002 -1.0563 -1.7161
S -1.7357 -1.6749 0.8157
C -0.8292999999999999 -1.2327 -0.6117
H -3.7117000000000004 -0.9013 -3.4015
H -4.6394 -2.1045 1.2244
H -5.9821 -1.3233 -2.7188
N 0.17070000000000007 -1.0549 -0.7103
C 1.1183 -1.1772 0.2523
O 0.8495000000000001 -1.4996 1.4339
C 2.5373 -0.9304 -0.0912
C 3.1204 0.3041 0.6508
H 0.4942000000000001 -0.8048 -1.5905
H 2.6359 -0.7816 -1.1703
H 3.1156 -1.8209 0.1705
H 2.5376 1.1946 0.3974
H 3.0101 0.1491 1.7283
C 7.2128000000000005 1.0354 -0.3588
C 6.8762 0.551 0.925
C 6.1873000000000005 1.2778 -1.2995
C 5.5195 0.3151 1.2481
C 4.8426 1.0405 -0.9679
C 4.4884 0.5532 0.3099
H 6.409800000000001 1.6292 -2.2325
H 5.2795000000000005 -0.0373 2.1765
H 4.1204 1.2292 -1.6678
O 8.212800000000001 -1.4963 -0.5423
C 9.6328 -1.5749 -0.7185
C 9.9543 -1.7276 -2.2225
C 11.469999999999999 -1.8202 -2.5058
H 10.0204 -2.4386 -0.1724
H 10.0983 -0.663 -0.3361
H 9.546 -0.8701 -2.764
H 9.468800000000002 -2.6308 -2.6017
H 11.900400000000001 -2.6859 -1.9984
H 11.977900000000002 -0.9171 -2.1614
H 11.6386 -1.9265 -3.579
O 12.977900000000002 -2.9391 2.0505
H 14.206100000000001 -3.1549 1.947
