58
F16_F4_F1_F56
O -6.8018 -2.9513 -0.8438
C -5.795 -3.6977 -0.8163
N -4.5479 -3.2477 -0.5275
C -5.9855 -5.143 -1.0759
C -5.2415 -5.6557 -2.3399
C -5.7415 -5.0199 -3.6671
C -5.011 -5.5885 -4.9143
C -5.5164 -5.0005 -6.2548
N -5.2246 -3.5675 -6.3765
H -3.8699 -3.938 -0.4501
H -7.0505 -5.3719 -1.1805
H -5.6233 -5.6962 -0.2054
H -4.1692 -5.4708 -2.2295
H -5.383 -6.7388 -2.3953
H -5.5841 -3.9393 -3.6257
H -6.8147 -5.2047 -3.7675
H -5.1546 -6.6722 -4.9448
H -3.938 -5.3958 -4.8273
H -6.593 -5.1549 -6.3535
H -5.0207 -5.5153 -7.0804
H -5.5804 -3.2676 -7.2868
H -5.7826 -3.0847 -5.6694
C 0.2324000000000006 -1.2591 -1.4908
C -0.04129999999999967 -1.6036 -0.1702
C -0.8029999999999999 -1.1545 -2.432
C -1.3600999999999992 -1.8537 0.2475
C -2.1275999999999993 -1.4039 -2.0202
C -2.4372999999999996 -1.758 -0.6763
N 1.5357000000000003 -1.0563 -1.7161
S 1.3765000000000005 -1.6749 0.8157
C 2.2829000000000006 -1.2327 -0.6117
H -0.5994999999999999 -0.9013 -3.4015
H -1.5271999999999997 -2.1045 1.2244
H -2.8698999999999995 -1.3233 -2.7188
N 3.2829000000000006 -1.0549 -0.7103
C 4.2305 -1.1772 0.2523
O 3.9617000000000004 -1.4996 1.4339
C 5.649500000000001 -0.9304 -0.0912
C 6.232600000000001 0.3041 0.6508
H 3.6064000000000007 -0.8048 -1.5905
H 5.748100000000001 -0.7816 -1.1703
H 6.2278 -1.8209 0.1705
H 5.649800000000001 1.1946 0.3974
H 6.122300000000001 0.1491 1.7283
C 10.509800000000002 -0.5593 -0.4813
C 10.156300000000002 -1.6733 -1.2279
C 9.679400000000001 -0.0751 0.5418
C 8.9556 -2.3569 -0.9865
C 8.4556 -0.7416 0.811
C 8.108600000000001 -1.8843 0.0382
O 11.700400000000002 -0.0993 -0.9151
O 11.122100000000001 -1.9204 -2.1353
C 12.1553 -0.9362 -1.9878
H 9.966800000000001 0.7488 1.0741
H 8.703700000000001 -3.1772 -1.5411
H 7.2326000000000015 -2.3809 0.2192
H 13.103200000000001 -1.4111 -1.7283
H 12.2665 -0.3563 -2.9059
