91
F46_F4_F1_F5_F11_F35
C -8.4258 -3.1929 0.6313
N -7.0017 -3.5927 0.4372
O -4.2928 -5.2018 1.7708
C -4.8882 -4.1101 1.6131
N -4.2459 -2.9348 1.3968
C -6.3645 -4.0945 1.697
C -6.8326 -4.5077 -0.7316
H -8.8298 -2.7557 -0.2843
H -8.5048 -2.434 1.4123
H -9.042 -4.0508 0.9122
H -4.8203 -2.1526 1.3719
H -6.7486 -5.0915 1.938
H -6.6192 -3.4404 2.5359
H -7.2445 -4.0529 -1.6349
H -5.7756 -4.6994 -0.9231
H -7.3351 -5.463 -0.5606
C -0.14359999999999973 -1.2591 -1.4908
C -0.4173 -1.6036 -0.1702
C -1.1790000000000003 -1.1545 -2.432
C -1.7360999999999995 -1.8537 0.2475
C -2.5035999999999996 -1.4039 -2.0202
C -2.8133 -1.758 -0.6763
N 1.1597 -1.0563 -1.7161
S 1.0005000000000002 -1.6749 0.8157
C 1.9069000000000003 -1.2327 -0.6117
H -0.9755000000000003 -0.9013 -3.4015
H -1.9032 -2.1045 1.2244
H -3.2459 -1.3233 -2.7188
N 2.9069000000000003 -1.0549 -0.7103
C 3.8545000000000003 -1.1772 0.2523
O 3.5857 -1.4996 1.4339
C 5.2735 -0.9304 -0.0912
C 5.8566 0.3041 0.6508
H 3.2304000000000004 -0.8048 -1.5905
H 5.3721 -0.7816 -1.1703
H 5.851800000000001 -1.8209 0.1705
H 5.2738 1.1946 0.3974
H 5.7463 0.1491 1.7283
C 9.949000000000002 1.0354 -0.3588
C 9.612400000000001 0.551 0.925
C 8.9235 1.2778 -1.2995
C 8.255700000000001 0.3151 1.2481
C 7.5788 1.0405 -0.9679
C 7.224600000000001 0.5532 0.3099
H 9.146 1.6292 -2.2325
H 8.0157 -0.0373 2.1765
H 6.8566 1.2292 -1.6678
O 10.949000000000002 -1.4963 -0.5423
C 12.369000000000002 -1.5749 -0.7185
C 12.690500000000002 -1.7276 -2.2225
C 14.2062 -1.8202 -2.5058
H 12.756600000000002 -2.4386 -0.1724
H 12.834500000000002 -0.663 -0.3361
H 12.282200000000001 -0.8701 -2.764
H 12.205000000000002 -2.6308 -2.6017
H 14.636600000000001 -2.6859 -1.9984
H 14.714100000000002 -0.9171 -2.1614
H 14.374800000000002 -1.9265 -3.579
C 22.8814 -5.879 -2.4937
O 15.714100000000002 3.6951 1.572
C 17.0267 3.2206 1.9053
C 17.6842 2.4552 0.7286
C 19.090300000000003 1.9037 1.0854
C 19.7485 1.1364 -0.093
C 21.1526 0.5796 0.267
C 21.786500000000004 -0.1361 -0.8623
N 21.227700000000002 -1.2841 -1.3163
C 21.7044 -2.0979 -2.3917
C 22.050600000000003 -3.5166 -1.8761
C 22.5363 -4.4629 -3.0064
O 22.835100000000004 0.3317 -1.3674
H 22.003600000000002 -6.3455 -2.0422
H 23.680600000000002 -5.8314 -1.7513
H 23.216500000000003 -6.5011 -3.3259
H 16.990900000000003 2.61 2.8094
H 17.634 4.1001 2.1288
H 17.768 3.1357 -0.1232
H 17.042 1.6247 0.4294
H 19.000100000000003 1.2293 1.9418
H 19.736700000000003 2.7375 1.3741
H 19.842200000000002 1.8115 -0.949
H 19.094800000000003 0.3082 -0.3822
H 21.0702 -0.1101 1.1112
H 21.791000000000004 1.411 0.5809
H 20.4223 -1.5868 -0.8673
H 22.5819 -1.6647 -2.8797
H 20.906000000000002 -2.1641 -3.1341
H 21.163400000000003 -3.9496 -1.4045
H 22.834000000000003 -3.4339 -1.1171
H 21.7562 -4.5494 -3.7677
H 23.4264 -4.038 -3.4785
