17
F6_F13_F25
C 1.9269 -2.5141 -0.7382
C 1.8514 -2.9815 0.735
N 0.6754 -2.4707 1.4256
C 0.7341 -1.5278 2.4314
O -0.3043 -1.2281 3.0748
C 1.9518 -0.781 2.8637
H 2.8546 -2.8669 -1.1929
H 1.0882 -2.9129 -1.3116
H 1.9041 -1.4245 -0.792
H 2.7825 -2.6878 1.2157
H 1.8631 -4.0742 0.7577
H 2.7021 -1.5006 3.1989
H 1.7297 -0.1571 3.7356
Cl 3.8545999999999996 -0.6791 2.1642
N 5.4283 1.3119 2.3492
H 4.7856 1.5171 3.0466
H 6.3585 1.5619 2.4652
