89
F33_F4_F6_F5_F2_F35
C -10.6688 -2.6804 -1.9188
C -8.3967 -2.3202 -0.7526
N -6.2531 -2.0117 0.3803
C -5.3108 -1.0339 0.4305
C -7.6683 -1.8572 0.5334
C -9.9409 -2.2182 -0.6366
O -5.6731 0.1488 0.646
H -11.7482 -2.5882 -1.7838
H -10.3708 -2.0642 -2.7695
H -10.4333 -3.7242 -2.1357
H -8.1221 -3.3583 -0.9625
H -8.059 -1.7025 -1.59
H -5.9431 -2.9168 0.2277
H -7.979 -2.4823 1.3734
H -7.9528 -0.8261 0.7595
H -10.2223 -1.1815 -0.4321
H -10.2837 -2.8346 0.199
C -1.2085000000000004 -1.2591 -1.4908
C -1.4822000000000006 -1.6036 -0.1702
C -2.243900000000001 -1.1545 -2.432
C -2.801 -1.8537 0.2475
C -3.5685000000000002 -1.4039 -2.0202
C -3.8782000000000005 -1.758 -0.6763
N 0.09479999999999933 -1.0563 -1.7161
S -0.06440000000000046 -1.6749 0.8157
C 0.8419999999999996 -1.2327 -0.6117
H -2.040400000000001 -0.9013 -3.4015
H -2.9681000000000006 -2.1045 1.2244
H -4.3108 -1.3233 -2.7188
C 4.0732 -2.5141 -0.7382
C 3.9976999999999996 -2.9815 0.735
N 2.8217 -2.4707 1.4256
C 2.8804 -1.5278 2.4314
O 1.8419999999999996 -1.2281 3.0748
C 4.0981 -0.781 2.8637
H 5.0009 -2.8669 -1.1929
H 3.2344999999999997 -2.9129 -1.3116
H 4.0504 -1.4245 -0.792
H 4.9288 -2.6878 1.2157
H 4.009399999999999 -4.0742 0.7577
H 4.8484 -1.5006 3.1989
H 3.8759999999999994 -0.1571 3.7356
C 9.0933 1.0354 -0.3588
C 8.756699999999999 0.551 0.925
C 8.0678 1.2778 -1.2995
C 7.3999999999999995 0.3151 1.2481
C 6.7231 1.0405 -0.9679
C 6.3689 0.5532 0.3099
H 8.2903 1.6292 -2.2325
H 7.16 -0.0373 2.1765
H 6.0009 1.2292 -1.6678
O 10.7358 0.3316 1.8022
C 10.6816 -0.1508 3.1489
H 11.6957 -0.2004 3.5454
H 10.0933 0.5259 3.7707
H 10.2436 -1.1498 3.1765
C 19.863 -5.879 -2.4937
O 12.6957 3.6951 1.572
C 14.0083 3.2206 1.9053
C 14.6658 2.4552 0.7286
C 16.0719 1.9037 1.0854
C 16.7301 1.1364 -0.093
C 18.1342 0.5796 0.267
C 18.7681 -0.1361 -0.8623
N 18.2093 -1.2841 -1.3163
C 18.686 -2.0979 -2.3917
C 19.0322 -3.5166 -1.8761
C 19.5179 -4.4629 -3.0064
O 19.8167 0.3317 -1.3674
H 18.9852 -6.3455 -2.0422
H 20.6622 -5.8314 -1.7513
H 20.1981 -6.5011 -3.3259
H 13.9725 2.61 2.8094
H 14.6156 4.1001 2.1288
H 14.749600000000001 3.1357 -0.1232
H 14.0236 1.6247 0.4294
H 15.9817 1.2293 1.9418
H 16.7183 2.7375 1.3741
H 16.8238 1.8115 -0.949
H 16.0764 0.3082 -0.3822
H 18.0518 -0.1101 1.1112
H 18.7726 1.411 0.5809
H 17.4039 -1.5868 -0.8673
H 19.5635 -1.6647 -2.8797
H 17.8876 -2.1641 -3.1341
H 18.145 -3.9496 -1.4045
H 19.8156 -3.4339 -1.1171
H 18.7378 -4.5494 -3.7677
H 20.408 -4.038 -3.4785
