54
F21_F4_F6_F5_F11_F51
C -5.9142 -3.0442 -3.1758
H -6.0511 -2.8208 -4.2355
H -5.6386 -4.0967 -3.0828
H -6.8631 -2.8939 -2.6575
C -1.5363000000000002 -1.2591 -1.4908
C -1.8100000000000005 -1.6036 -0.1702
C -2.5717000000000008 -1.1545 -2.432
C -3.1288 -1.8537 0.2475
C -3.8963 -1.4039 -2.0202
C -4.206 -1.758 -0.6763
N -0.23300000000000054 -1.0563 -1.7161
S -0.3922000000000003 -1.6749 0.8157
C 0.5141999999999998 -1.2327 -0.6117
H -2.3682000000000007 -0.9013 -3.4015
H -3.2959000000000005 -2.1045 1.2244
H -4.6386 -1.3233 -2.7188
C 3.7454 -2.5141 -0.7382
C 3.6698999999999997 -2.9815 0.735
N 2.4939 -2.4707 1.4256
C 2.5526 -1.5278 2.4314
O 1.5141999999999998 -1.2281 3.0748
C 3.7702999999999998 -0.781 2.8637
H 4.6731 -2.8669 -1.1929
H 2.9067 -2.9129 -1.3116
H 3.7226 -1.4245 -0.792
H 4.601 -2.6878 1.2157
H 3.6815999999999995 -4.0742 0.7577
H 4.5206 -1.5006 3.1989
H 3.5481999999999996 -0.1571 3.7356
C 8.7655 1.0354 -0.3588
C 8.428899999999999 0.551 0.925
C 7.74 1.2778 -1.2995
C 7.0722 0.3151 1.2481
C 6.3953 1.0405 -0.9679
C 6.0411 0.5532 0.3099
H 7.9625 1.6292 -2.2325
H 6.8322 -0.0373 2.1765
H 5.6731 1.2292 -1.6678
O 9.7655 -1.4963 -0.5423
C 11.1855 -1.5749 -0.7185
C 11.507 -1.7276 -2.2225
C 13.022699999999999 -1.8202 -2.5058
H 11.5731 -2.4386 -0.1724
H 11.651 -0.663 -0.3361
H 11.0987 -0.8701 -2.764
H 11.0215 -2.6308 -2.6017
H 13.4531 -2.6859 -1.9984
H 13.5306 -0.9171 -2.1614
H 13.1913 -1.9265 -3.579
F 14.530599999999998 -1.2311 0.0678
F 15.362999999999998 0.8016 -0.2701
F 15.548299999999998 -0.1838 1.7431
C 15.564099999999998 -0.3884 0.3852
O 16.788099999999996 -1.008 -0.0307
