50
F12_F4_F6_F5_F40_F18
I -8.6378 -1.6419 1.5252
C -4.535500000000001 -1.2591 -1.4908
C -4.809200000000001 -1.6036 -0.1702
C -5.570900000000001 -1.1545 -2.432
C -6.128 -1.8537 0.2475
C -6.8955 -1.4039 -2.0202
C -7.2052000000000005 -1.758 -0.6763
N -3.2322000000000006 -1.0563 -1.7161
S -3.3914000000000004 -1.6749 0.8157
C -2.4850000000000003 -1.2327 -0.6117
H -5.367400000000001 -0.9013 -3.4015
H -6.295100000000001 -2.1045 1.2244
H -7.6378 -1.3233 -2.7188
C 0.7461999999999998 -2.5141 -0.7382
C 0.6706999999999996 -2.9815 0.735
N -0.5053000000000003 -2.4707 1.4256
C -0.44660000000000033 -1.5278 2.4314
O -1.4850000000000003 -1.2281 3.0748
C 0.7710999999999997 -0.781 2.8637
H 1.6738999999999997 -2.8669 -1.1929
H -0.09250000000000025 -2.9129 -1.3116
H 0.7233999999999996 -1.4245 -0.792
H 1.6018 -2.6878 1.2157
H 0.6823999999999997 -4.0742 0.7577
H 1.5213999999999999 -1.5006 3.1989
H 0.5489999999999997 -0.1571 3.7356
C 5.7663 1.0354 -0.3588
C 5.4296999999999995 0.551 0.925
C 4.7408 1.2778 -1.2995
C 4.0729999999999995 0.3151 1.2481
C 3.3960999999999997 1.0405 -0.9679
C 3.0419 0.5532 0.3099
H 4.9633 1.6292 -2.2325
H 3.833 -0.0373 2.1765
H 2.6738999999999997 1.2292 -1.6678
N 7.4711 -0.6826 -2.4804
C 8.721 -0.7737 -3.155
H 6.7663 -1.2486 -2.8342
H 8.6273 -1.4935 -3.9684
H 8.9994 0.1918 -3.5804
H 9.5 -1.1225 -2.4751
C 14.186300000000001 -1.1295 1.1065
N 11.850200000000001 -1.8312 0.9458
C 12.7477 -0.8816 1.3083
O 12.416500000000001 0.2158 1.8158
O 14.7102 -0.1494 0.2012
H 14.3556 -2.1279 0.6941
H 14.6982 -1.0585 2.0692
H 12.2245 -2.6415 0.5647
H 10.5 -1.8029 1.0424
