40
F43_F4_F1_F56
F -9.1072 -3.8069 0.1789
F -9.8111 -2.7747 1.9987
C -9.1891 -2.5777 0.7877
F -10.0187 -1.7758 0.0413
C -5.004900000000001 -1.2591 -1.4908
C -5.278600000000001 -1.6036 -0.1702
C -6.040300000000001 -1.1545 -2.432
C -6.5974 -1.8537 0.2475
C -7.3649000000000004 -1.4039 -2.0202
C -7.674600000000001 -1.758 -0.6763
N -3.701600000000001 -1.0563 -1.7161
S -3.8608000000000007 -1.6749 0.8157
C -2.9544000000000006 -1.2327 -0.6117
H -5.836800000000001 -0.9013 -3.4015
H -6.764500000000001 -2.1045 1.2244
H -8.1072 -1.3233 -2.7188
N -1.9544000000000006 -1.0549 -0.7103
C -1.0068000000000006 -1.1772 0.2523
O -1.2756000000000007 -1.4996 1.4339
C 0.41219999999999923 -0.9304 -0.0912
C 0.9952999999999994 0.3041 0.6508
H -1.6309000000000007 -0.8048 -1.5905
H 0.5107999999999993 -0.7816 -1.1703
H 0.9904999999999995 -1.8209 0.1705
H 0.4124999999999992 1.1946 0.3974
H 0.8849999999999993 0.1491 1.7283
C 5.272499999999999 -0.5593 -0.4813
C 4.918999999999999 -1.6733 -1.2279
C 4.4421 -0.0751 0.5418
C 3.7182999999999997 -2.3569 -0.9865
C 3.2182999999999997 -0.7416 0.811
C 2.8712999999999997 -1.8843 0.0382
O 6.463099999999999 -0.0993 -0.9151
O 5.8848 -1.9204 -2.1353
C 6.917999999999999 -0.9362 -1.9878
H 4.7295 0.7488 1.0741
H 3.4663999999999997 -3.1772 -1.5411
H 1.9952999999999994 -2.3809 0.2192
H 7.8659 -1.4111 -1.7283
H 7.0291999999999994 -0.3563 -2.9059
