79
F29_F4_F6_F5_F11_F35
F 7.5191 -0.4893 0.2975
C 11.6214 -1.2591 -1.4908
C 11.3477 -1.6036 -0.1702
C 10.585999999999999 -1.1545 -2.432
C 10.0289 -1.8537 0.2475
C 9.2614 -1.4039 -2.0202
C 8.951699999999999 -1.758 -0.6763
N 12.9247 -1.0563 -1.7161
S 12.7655 -1.6749 0.8157
C 13.6719 -1.2327 -0.6117
H 10.7895 -0.9013 -3.4015
H 9.861799999999999 -2.1045 1.2244
H 8.5191 -1.3233 -2.7188
C 16.903100000000002 -2.5141 -0.7382
C 16.8276 -2.9815 0.735
N 15.6516 -2.4707 1.4256
C 15.7103 -1.5278 2.4314
O 14.6719 -1.2281 3.0748
C 16.928 -0.781 2.8637
H 17.8308 -2.8669 -1.1929
H 16.0644 -2.9129 -1.3116
H 16.880300000000002 -1.4245 -0.792
H 17.7587 -2.6878 1.2157
H 16.8393 -4.0742 0.7577
H 17.6783 -1.5006 3.1989
H 16.7059 -0.1571 3.7356
C 21.9232 1.0354 -0.3588
C 21.5866 0.551 0.925
C 20.8977 1.2778 -1.2995
C 20.2299 0.3151 1.2481
C 19.553 1.0405 -0.9679
C 19.1988 0.5532 0.3099
H 21.1202 1.6292 -2.2325
H 19.9899 -0.0373 2.1765
H 18.8308 1.2292 -1.6678
O 22.9232 -1.4963 -0.5423
C 24.343200000000003 -1.5749 -0.7185
C 24.664700000000003 -1.7276 -2.2225
C 26.1804 -1.8202 -2.5058
H 24.730800000000002 -2.4386 -0.1724
H 24.8087 -0.663 -0.3361
H 24.2564 -0.8701 -2.764
H 24.1792 -2.6308 -2.6017
H 26.6108 -2.6859 -1.9984
H 26.6883 -0.9171 -2.1614
H 26.349000000000004 -1.9265 -3.579
C 34.8556 -5.879 -2.4937
O 27.6883 3.6951 1.572
C 29.0009 3.2206 1.9053
C 29.658400000000004 2.4552 0.7286
C 31.064500000000002 1.9037 1.0854
C 31.722700000000003 1.1364 -0.093
C 33.1268 0.5796 0.267
C 33.7607 -0.1361 -0.8623
N 33.2019 -1.2841 -1.3163
C 33.6786 -2.0979 -2.3917
C 34.024800000000006 -3.5166 -1.8761
C 34.5105 -4.4629 -3.0064
O 34.80930000000001 0.3317 -1.3674
H 33.9778 -6.3455 -2.0422
H 35.6548 -5.8314 -1.7513
H 35.19070000000001 -6.5011 -3.3259
H 28.965100000000003 2.61 2.8094
H 29.608200000000004 4.1001 2.1288
H 29.742200000000004 3.1357 -0.1232
H 29.016200000000005 1.6247 0.4294
H 30.974300000000003 1.2293 1.9418
H 31.710900000000002 2.7375 1.3741
H 31.8164 1.8115 -0.949
H 31.069000000000003 0.3082 -0.3822
H 33.0444 -0.1101 1.1112
H 33.76520000000001 1.411 0.5809
H 32.3965 -1.5868 -0.8673
H 34.5561 -1.6647 -2.8797
H 32.8802 -2.1641 -3.1341
H 33.137600000000006 -3.9496 -1.4045
H 34.8082 -3.4339 -1.1171
H 33.7304 -4.5494 -3.7677
H 35.400600000000004 -4.038 -3.4785
