69
F46_F4_F6_F5_F11_F32
C -8.4258 -3.1929 0.6313
N -7.0017 -3.5927 0.4372
O -4.2928 -5.2018 1.7708
C -4.8882 -4.1101 1.6131
N -4.2459 -2.9348 1.3968
C -6.3645 -4.0945 1.697
C -6.8326 -4.5077 -0.7316
H -8.8298 -2.7557 -0.2843
H -8.5048 -2.434 1.4123
H -9.042 -4.0508 0.9122
H -4.8203 -2.1526 1.3719
H -6.7486 -5.0915 1.938
H -6.6192 -3.4404 2.5359
H -7.2445 -4.0529 -1.6349
H -5.7756 -4.6994 -0.9231
H -7.3351 -5.463 -0.5606
C -0.14359999999999973 -1.2591 -1.4908
C -0.4173 -1.6036 -0.1702
C -1.1790000000000003 -1.1545 -2.432
C -1.7360999999999995 -1.8537 0.2475
C -2.5035999999999996 -1.4039 -2.0202
C -2.8133 -1.758 -0.6763
N 1.1597 -1.0563 -1.7161
S 1.0005000000000002 -1.6749 0.8157
C 1.9069000000000003 -1.2327 -0.6117
H -0.9755000000000003 -0.9013 -3.4015
H -1.9032 -2.1045 1.2244
H -3.2459 -1.3233 -2.7188
C 5.1381000000000006 -2.5141 -0.7382
C 5.0626 -2.9815 0.735
N 3.8866000000000005 -2.4707 1.4256
C 3.9453000000000005 -1.5278 2.4314
O 2.9069000000000003 -1.2281 3.0748
C 5.163 -0.781 2.8637
H 6.0658 -2.8669 -1.1929
H 4.2994 -2.9129 -1.3116
H 5.1153 -1.4245 -0.792
H 5.9937000000000005 -2.6878 1.2157
H 5.0743 -4.0742 0.7577
H 5.9133000000000004 -1.5006 3.1989
H 4.9409 -0.1571 3.7356
C 10.1582 1.0354 -0.3588
C 9.8216 0.551 0.925
C 9.1327 1.2778 -1.2995
C 8.4649 0.3151 1.2481
C 7.788 1.0405 -0.9679
C 7.433800000000001 0.5532 0.3099
H 9.3552 1.6292 -2.2325
H 8.224900000000002 -0.0373 2.1765
H 7.0658 1.2292 -1.6678
O 11.1582 -1.4963 -0.5423
C 12.5782 -1.5749 -0.7185
C 12.899700000000001 -1.7276 -2.2225
C 14.4154 -1.8202 -2.5058
H 12.965800000000002 -2.4386 -0.1724
H 13.043700000000001 -0.663 -0.3361
H 12.4914 -0.8701 -2.764
H 12.414200000000001 -2.6308 -2.6017
H 14.8458 -2.6859 -1.9984
H 14.923300000000001 -0.9171 -2.1614
H 14.584000000000001 -1.9265 -3.579
C 18.2251 -1.0292 -0.4521
O 15.923300000000001 -0.455 0.0669
C 16.741100000000003 -1.3728 -0.671
H 18.4745 -1.1021 0.6082
H 18.854300000000002 -1.7241 -1.0112
H 18.4295 -0.0134 -0.7957
H 16.5077 -1.3023 -1.7362
H 16.5528 -2.3935 -0.3291
