76
F29_F4_F1_F5_F11_F35
F 7.5191 -0.4893 0.2975
C 11.6214 -1.2591 -1.4908
C 11.3477 -1.6036 -0.1702
C 10.585999999999999 -1.1545 -2.432
C 10.0289 -1.8537 0.2475
C 9.2614 -1.4039 -2.0202
C 8.951699999999999 -1.758 -0.6763
N 12.9247 -1.0563 -1.7161
S 12.7655 -1.6749 0.8157
C 13.6719 -1.2327 -0.6117
H 10.7895 -0.9013 -3.4015
H 9.861799999999999 -2.1045 1.2244
H 8.5191 -1.3233 -2.7188
N 14.6719 -1.0549 -0.7103
C 15.6195 -1.1772 0.2523
O 15.3507 -1.4996 1.4339
C 17.0385 -0.9304 -0.0912
C 17.6216 0.3041 0.6508
H 14.9954 -0.8048 -1.5905
H 17.1371 -0.7816 -1.1703
H 17.6168 -1.8209 0.1705
H 17.038800000000002 1.1946 0.3974
H 17.5113 0.1491 1.7283
C 21.714000000000002 1.0354 -0.3588
C 21.3774 0.551 0.925
C 20.6885 1.2778 -1.2995
C 20.0207 0.3151 1.2481
C 19.3438 1.0405 -0.9679
C 18.989600000000003 0.5532 0.3099
H 20.911 1.6292 -2.2325
H 19.780700000000003 -0.0373 2.1765
H 18.6216 1.2292 -1.6678
O 22.714000000000002 -1.4963 -0.5423
C 24.134 -1.5749 -0.7185
C 24.4555 -1.7276 -2.2225
C 25.971200000000003 -1.8202 -2.5058
H 24.521600000000003 -2.4386 -0.1724
H 24.599500000000003 -0.663 -0.3361
H 24.047200000000004 -0.8701 -2.764
H 23.970000000000002 -2.6308 -2.6017
H 26.401600000000002 -2.6859 -1.9984
H 26.479100000000003 -0.9171 -2.1614
H 26.1398 -1.9265 -3.579
C 34.6464 -5.879 -2.4937
O 27.479100000000003 3.6951 1.572
C 28.791700000000006 3.2206 1.9053
C 29.449200000000005 2.4552 0.7286
C 30.855300000000003 1.9037 1.0854
C 31.513500000000004 1.1364 -0.093
C 32.91760000000001 0.5796 0.267
C 33.551500000000004 -0.1361 -0.8623
N 32.992700000000006 -1.2841 -1.3163
C 33.46940000000001 -2.0979 -2.3917
C 33.8156 -3.5166 -1.8761
C 34.301300000000005 -4.4629 -3.0064
O 34.600100000000005 0.3317 -1.3674
H 33.768600000000006 -6.3455 -2.0422
H 35.445600000000006 -5.8314 -1.7513
H 34.981500000000004 -6.5011 -3.3259
H 28.755900000000004 2.61 2.8094
H 29.399000000000004 4.1001 2.1288
H 29.533000000000005 3.1357 -0.1232
H 28.807000000000006 1.6247 0.4294
H 30.765100000000004 1.2293 1.9418
H 31.501700000000003 2.7375 1.3741
H 31.607200000000006 1.8115 -0.949
H 30.859800000000003 0.3082 -0.3822
H 32.8352 -0.1101 1.1112
H 33.556000000000004 1.411 0.5809
H 32.18730000000001 -1.5868 -0.8673
H 34.346900000000005 -1.6647 -2.8797
H 32.67100000000001 -2.1641 -3.1341
H 32.9284 -3.9496 -1.4045
H 34.599000000000004 -3.4339 -1.1171
H 33.52120000000001 -4.5494 -3.7677
H 35.1914 -4.038 -3.4785
