48
F29_F4_F1_F5_F25_F27
F 7.5191 -0.4893 0.2975
C 11.6214 -1.2591 -1.4908
C 11.3477 -1.6036 -0.1702
C 10.585999999999999 -1.1545 -2.432
C 10.0289 -1.8537 0.2475
C 9.2614 -1.4039 -2.0202
C 8.951699999999999 -1.758 -0.6763
N 12.9247 -1.0563 -1.7161
S 12.7655 -1.6749 0.8157
C 13.6719 -1.2327 -0.6117
H 10.7895 -0.9013 -3.4015
H 9.861799999999999 -2.1045 1.2244
H 8.5191 -1.3233 -2.7188
N 14.6719 -1.0549 -0.7103
C 15.6195 -1.1772 0.2523
O 15.3507 -1.4996 1.4339
C 17.0385 -0.9304 -0.0912
C 17.6216 0.3041 0.6508
H 14.9954 -0.8048 -1.5905
H 17.1371 -0.7816 -1.1703
H 17.6168 -1.8209 0.1705
H 17.038800000000002 1.1946 0.3974
H 17.5113 0.1491 1.7283
C 21.714000000000002 1.0354 -0.3588
C 21.3774 0.551 0.925
C 20.6885 1.2778 -1.2995
C 20.0207 0.3151 1.2481
C 19.3438 1.0405 -0.9679
C 18.989600000000003 0.5532 0.3099
H 20.911 1.6292 -2.2325
H 19.780700000000003 -0.0373 2.1765
H 18.6216 1.2292 -1.6678
N 23.356700000000004 1.3119 2.3492
H 22.714000000000002 1.5171 3.0466
H 24.286900000000003 1.5619 2.4652
C 25.964200000000005 -1.765 1.6205
C 27.159100000000002 -0.9944 2.0677
C 29.682900000000004 -0.5753 1.7363
O 30.831400000000002 -1.0065 0.9941
C 28.448500000000003 -1.3982 1.301
O 25.586900000000004 -2.6465 2.4316
H 27.338400000000004 -1.1731 3.1334
H 26.965500000000006 0.0754 1.9702
H 29.865800000000004 -0.7204 2.8042
H 29.504000000000005 0.4858 1.5435
H 28.654000000000003 -2.4573 1.482
H 28.308500000000002 -1.265 0.2261
H 25.286900000000003 -1.5876 0.4342
