79
F48_F4_F1_F5_F35_F18
O -3.7388 -5.2357 -1.3962
S -3.6286 -4.7302 0.1085
N -2.0179 -4.289 0.3877
O -3.9406 -5.9747 1.0477
H -1.5671 -4.7494 1.1133
H -4.7796 -3.456 0.4746
C 2.5352 -1.2591 -1.4908
C 2.2615 -1.6036 -0.1702
C 1.4997999999999996 -1.1545 -2.432
C 0.9427000000000003 -1.8537 0.2475
C 0.17520000000000024 -1.4039 -2.0202
C -0.13450000000000006 -1.758 -0.6763
N 3.8385 -1.0563 -1.7161
S 3.6793 -1.6749 0.8157
C 4.5857 -1.2327 -0.6117
H 1.7032999999999996 -0.9013 -3.4015
H 0.7755999999999998 -2.1045 1.2244
H -0.5670999999999999 -1.3233 -2.7188
N 5.5857 -1.0549 -0.7103
C 6.5333000000000006 -1.1772 0.2523
O 6.264500000000001 -1.4996 1.4339
C 7.9523 -0.9304 -0.0912
C 8.535400000000001 0.3041 0.6508
H 5.9092 -0.8048 -1.5905
H 8.0509 -0.7816 -1.1703
H 8.5306 -1.8209 0.1705
H 7.9526 1.1946 0.3974
H 8.4251 0.1491 1.7283
C 12.6278 1.0354 -0.3588
C 12.2912 0.551 0.925
C 11.602300000000001 1.2778 -1.2995
C 10.9345 0.3151 1.2481
C 10.2576 1.0405 -0.9679
C 9.903400000000001 0.5532 0.3099
H 11.824800000000002 1.6292 -2.2325
H 10.694500000000001 -0.0373 2.1765
H 9.535400000000001 1.2292 -1.6678
C 20.795099999999998 -5.879 -2.4937
O 13.6278 3.6951 1.572
C 14.9404 3.2206 1.9053
C 15.597900000000001 2.4552 0.7286
C 17.004 1.9037 1.0854
C 17.6622 1.1364 -0.093
C 19.0663 0.5796 0.267
C 19.700200000000002 -0.1361 -0.8623
N 19.1414 -1.2841 -1.3163
C 19.6181 -2.0979 -2.3917
C 19.9643 -3.5166 -1.8761
C 20.45 -4.4629 -3.0064
O 20.748800000000003 0.3317 -1.3674
H 19.9173 -6.3455 -2.0422
H 21.5943 -5.8314 -1.7513
H 21.130200000000002 -6.5011 -3.3259
H 14.9046 2.61 2.8094
H 15.5477 4.1001 2.1288
H 15.681700000000001 3.1357 -0.1232
H 14.9557 1.6247 0.4294
H 16.913800000000002 1.2293 1.9418
H 17.6504 2.7375 1.3741
H 17.7559 1.8115 -0.949
H 17.0085 0.3082 -0.3822
H 18.9839 -0.1101 1.1112
H 19.704700000000003 1.411 0.5809
H 18.336 -1.5868 -0.8673
H 20.4956 -1.6647 -2.8797
H 18.8197 -2.1641 -3.1341
H 19.0771 -3.9496 -1.4045
H 20.747700000000002 -3.4339 -1.1171
H 19.6699 -4.5494 -3.7677
H 21.3401 -4.038 -3.4785
C 26.2806 -1.1295 1.1065
N 23.944499999999998 -1.8312 0.9458
C 24.842 -0.8816 1.3083
O 24.5108 0.2158 1.8158
O 26.804499999999997 -0.1494 0.2012
H 26.4499 -2.1279 0.6941
H 26.7925 -1.0585 2.0692
H 24.3188 -2.6415 0.5647
H 22.5943 -1.8029 1.0424
