64
F38_F4_F6_F5_F32_F27
N 6.5369 0.3274 -1.1837
C 7.2435 1.5776 -1.0675
C 6.8774 -0.5644 -2.2627
H 8.3071 1.3899 -0.9071
H 6.881 2.1916 -0.2384
H 7.1249 2.1581 -1.9848
H 7.9364 -0.8251 -2.2088
H 6.6846 -0.0783 -3.2213
H 6.3057 -1.4963 -2.2368
C 12.4094 -1.2591 -1.4908
C 12.1357 -1.6036 -0.1702
C 11.373999999999999 -1.1545 -2.432
C 10.8169 -1.8537 0.2475
C 10.0494 -1.4039 -2.0202
C 9.7397 -1.758 -0.6763
N 13.7127 -1.0563 -1.7161
S 13.5535 -1.6749 0.8157
C 14.459900000000001 -1.2327 -0.6117
H 11.5775 -0.9013 -3.4015
H 10.649799999999999 -2.1045 1.2244
H 9.3071 -1.3233 -2.7188
C 17.691100000000002 -2.5141 -0.7382
C 17.6156 -2.9815 0.735
N 16.439600000000002 -2.4707 1.4256
C 16.4983 -1.5278 2.4314
O 15.459900000000001 -1.2281 3.0748
C 17.716 -0.781 2.8637
H 18.6188 -2.8669 -1.1929
H 16.8524 -2.9129 -1.3116
H 17.668300000000002 -1.4245 -0.792
H 18.5467 -2.6878 1.2157
H 17.6273 -4.0742 0.7577
H 18.4663 -1.5006 3.1989
H 17.4939 -0.1571 3.7356
C 22.7112 1.0354 -0.3588
C 22.3746 0.551 0.925
C 21.6857 1.2778 -1.2995
C 21.0179 0.3151 1.2481
C 20.341 1.0405 -0.9679
C 19.986800000000002 0.5532 0.3099
H 21.9082 1.6292 -2.2325
H 20.777900000000002 -0.0373 2.1765
H 19.6188 1.2292 -1.6678
C 26.013000000000005 -1.0292 -0.4521
O 23.711200000000005 -0.455 0.0669
C 24.529000000000003 -1.3728 -0.671
H 26.262400000000003 -1.1021 0.6082
H 26.642200000000003 -1.7241 -1.0112
H 26.217400000000005 -0.0134 -0.7957
H 24.295600000000004 -1.3023 -1.7362
H 24.340700000000005 -2.3935 -0.3291
C 28.319500000000005 -1.765 1.6205
C 29.514400000000002 -0.9944 2.0677
C 32.0382 -0.5753 1.7363
O 33.1867 -1.0065 0.9941
C 30.803800000000003 -1.3982 1.301
O 27.942200000000003 -2.6465 2.4316
H 29.693700000000003 -1.1731 3.1334
H 29.320800000000006 0.0754 1.9702
H 32.22110000000001 -0.7204 2.8042
H 31.859300000000005 0.4858 1.5435
H 31.009300000000003 -2.4573 1.482
H 30.663800000000002 -1.265 0.2261
H 27.642200000000003 -1.5876 0.4342
