75
F22_F4_F6_F5_F25_F35
C -8.4552 -2.5577 -1.2042
C -7.4938 -1.9296 -0.4001
H -9.4284 -2.5872 -0.8941
H -8.2235 -2.992 -2.0963
H -7.853 -1.5315 0.4731
C -3.3915 -1.2591 -1.4908
C -3.6652000000000005 -1.6036 -0.1702
C -4.426900000000001 -1.1545 -2.432
C -4.984 -1.8537 0.2475
C -5.7515 -1.4039 -2.0202
C -6.0612 -1.758 -0.6763
N -2.0882000000000005 -1.0563 -1.7161
S -2.2474000000000003 -1.6749 0.8157
C -1.3410000000000002 -1.2327 -0.6117
H -4.223400000000001 -0.9013 -3.4015
H -5.1511000000000005 -2.1045 1.2244
H -6.4938 -1.3233 -2.7188
C 1.8901999999999999 -2.5141 -0.7382
C 1.8146999999999998 -2.9815 0.735
N 0.6386999999999998 -2.4707 1.4256
C 0.6973999999999998 -1.5278 2.4314
O -0.3410000000000002 -1.2281 3.0748
C 1.9150999999999998 -0.781 2.8637
H 2.8179 -2.8669 -1.1929
H 1.0514999999999999 -2.9129 -1.3116
H 1.8673999999999997 -1.4245 -0.792
H 2.7458 -2.6878 1.2157
H 1.8263999999999998 -4.0742 0.7577
H 2.6654 -1.5006 3.1989
H 1.6929999999999998 -0.1571 3.7356
C 6.9103 1.0354 -0.3588
C 6.5737 0.551 0.925
C 5.8848 1.2778 -1.2995
C 5.217 0.3151 1.2481
C 4.5401 1.0405 -0.9679
C 4.1859 0.5532 0.3099
H 6.1073 1.6292 -2.2325
H 4.977 -0.0373 2.1765
H 3.8179 1.2292 -1.6678
N 8.553 1.3119 2.3492
H 7.9103 1.5171 3.0466
H 9.4832 1.5619 2.4652
C 17.6505 -5.879 -2.4937
O 10.4832 3.6951 1.572
C 11.7958 3.2206 1.9053
C 12.4533 2.4552 0.7286
C 13.8594 1.9037 1.0854
C 14.5176 1.1364 -0.093
C 15.9217 0.5796 0.267
C 16.5556 -0.1361 -0.8623
N 15.9968 -1.2841 -1.3163
C 16.4735 -2.0979 -2.3917
C 16.8197 -3.5166 -1.8761
C 17.3054 -4.4629 -3.0064
O 17.6042 0.3317 -1.3674
H 16.7727 -6.3455 -2.0422
H 18.4497 -5.8314 -1.7513
H 17.985599999999998 -6.5011 -3.3259
H 11.76 2.61 2.8094
H 12.4031 4.1001 2.1288
H 12.5371 3.1357 -0.1232
H 11.8111 1.6247 0.4294
H 13.7692 1.2293 1.9418
H 14.5058 2.7375 1.3741
H 14.6113 1.8115 -0.949
H 13.863900000000001 0.3082 -0.3822
H 15.8393 -0.1101 1.1112
H 16.5601 1.411 0.5809
H 15.1914 -1.5868 -0.8673
H 17.351 -1.6647 -2.8797
H 15.6751 -2.1641 -3.1341
H 15.932500000000001 -3.9496 -1.4045
H 17.603099999999998 -3.4339 -1.1171
H 16.5253 -4.5494 -3.7677
H 18.1955 -4.038 -3.4785
