48
F13_F4_F6_F5_F11_F9
Cl -6.6508 -0.6791 2.1642
C -2.5485 -1.2591 -1.4908
C -2.8222000000000005 -1.6036 -0.1702
C -3.5839000000000008 -1.1545 -2.432
C -4.141 -1.8537 0.2475
C -4.9085 -1.4039 -2.0202
C -5.2182 -1.758 -0.6763
N -1.2452000000000005 -1.0563 -1.7161
S -1.4044000000000003 -1.6749 0.8157
C -0.4980000000000002 -1.2327 -0.6117
H -3.3804000000000007 -0.9013 -3.4015
H -4.3081000000000005 -2.1045 1.2244
H -5.6508 -1.3233 -2.7188
C 2.7332 -2.5141 -0.7382
C 2.6576999999999997 -2.9815 0.735
N 1.4816999999999998 -2.4707 1.4256
C 1.5403999999999998 -1.5278 2.4314
O 0.5019999999999998 -1.2281 3.0748
C 2.7580999999999998 -0.781 2.8637
H 3.6609 -2.8669 -1.1929
H 1.8944999999999999 -2.9129 -1.3116
H 2.7104 -1.4245 -0.792
H 3.5888 -2.6878 1.2157
H 2.6693999999999996 -4.0742 0.7577
H 3.5084 -1.5006 3.1989
H 2.5359999999999996 -0.1571 3.7356
C 7.7533 1.0354 -0.3588
C 7.4167 0.551 0.925
C 6.7278 1.2778 -1.2995
C 6.06 0.3151 1.2481
C 5.3831 1.0405 -0.9679
C 5.0289 0.5532 0.3099
H 6.9503 1.6292 -2.2325
H 5.82 -0.0373 2.1765
H 4.6609 1.2292 -1.6678
O 8.7533 -1.4963 -0.5423
C 10.173300000000001 -1.5749 -0.7185
C 10.494800000000001 -1.7276 -2.2225
C 12.0105 -1.8202 -2.5058
H 10.5609 -2.4386 -0.1724
H 10.6388 -0.663 -0.3361
H 10.086500000000001 -0.8701 -2.764
H 10.0093 -2.6308 -2.6017
H 12.4409 -2.6859 -1.9984
H 12.5184 -0.9171 -2.1614
H 12.179100000000002 -1.9265 -3.579
O 13.5184 -2.9391 2.0505
H 14.746599999999999 -3.1549 1.947
