40
F17_F4_F1_F55
Br -6.7767 0.0257 -3.1439
C -2.6744 -1.2591 -1.4908
C -2.9481 -1.6036 -0.1702
C -3.7098000000000004 -1.1545 -2.432
C -4.2669 -1.8537 0.2475
C -5.0344 -1.4039 -2.0202
C -5.3441 -1.758 -0.6763
N -1.3711000000000002 -1.0563 -1.7161
S -1.5303 -1.6749 0.8157
C -0.6238999999999999 -1.2327 -0.6117
H -3.5063000000000004 -0.9013 -3.4015
H -4.434 -2.1045 1.2244
H -5.7767 -1.3233 -2.7188
N 0.3761000000000001 -1.0549 -0.7103
C 1.3237 -1.1772 0.2523
O 1.0549000000000002 -1.4996 1.4339
C 2.7427 -0.9304 -0.0912
C 3.3258 0.3041 0.6508
H 0.6996000000000001 -0.8048 -1.5905
H 2.8413 -0.7816 -1.1703
H 3.321 -1.8209 0.1705
H 2.743 1.1946 0.3974
H 3.2155 0.1491 1.7283
C 7.381 0.7347 -0.8172
C 6.3743 1.5144 -0.2177
C 7.0574 -0.5071 -1.3916
C 5.0456 1.0511 -0.1928
C 5.7286 -0.9698 -1.3652
C 4.7043 -0.1989 -0.7636
O 6.6949000000000005 2.7139 0.3337
O 8.660900000000002 1.1896 -0.8366
C 9.1207 2.4354 -0.2877
C 8.0064 3.2997 0.3747
H 7.7868 -1.0753 -1.8284
H 4.3258 1.633 0.2429
H 5.5156 -1.8769 -1.7874
H 9.5901 2.9994 -1.0966
H 9.8937 2.2062 0.449
H 8.2554 3.4787 1.4228
H 7.9501 4.2701 -0.1233
