44
F22_F4_F1_F55
C -8.4552 -2.5577 -1.2042
C -7.4938 -1.9296 -0.4001
H -9.4284 -2.5872 -0.8941
H -8.2235 -2.992 -2.0963
H -7.853 -1.5315 0.4731
C -3.3915 -1.2591 -1.4908
C -3.6652000000000005 -1.6036 -0.1702
C -4.426900000000001 -1.1545 -2.432
C -4.984 -1.8537 0.2475
C -5.7515 -1.4039 -2.0202
C -6.0612 -1.758 -0.6763
N -2.0882000000000005 -1.0563 -1.7161
S -2.2474000000000003 -1.6749 0.8157
C -1.3410000000000002 -1.2327 -0.6117
H -4.223400000000001 -0.9013 -3.4015
H -5.1511000000000005 -2.1045 1.2244
H -6.4938 -1.3233 -2.7188
N -0.3410000000000002 -1.0549 -0.7103
C 0.6065999999999998 -1.1772 0.2523
O 0.3377999999999998 -1.4996 1.4339
C 2.0256 -0.9304 -0.0912
C 2.6087 0.3041 0.6508
H -0.017500000000000182 -0.8048 -1.5905
H 2.1241999999999996 -0.7816 -1.1703
H 2.6039 -1.8209 0.1705
H 2.0258999999999996 1.1946 0.3974
H 2.4983999999999997 0.1491 1.7283
C 6.6639 0.7347 -0.8172
C 5.6572 1.5144 -0.2177
C 6.3403 -0.5071 -1.3916
C 4.3285 1.0511 -0.1928
C 5.0115 -0.9698 -1.3652
C 3.9872 -0.1989 -0.7636
O 5.9778 2.7139 0.3337
O 7.9438 1.1896 -0.8366
C 8.4036 2.4354 -0.2877
C 7.2893 3.2997 0.3747
H 7.0697 -1.0753 -1.8284
H 3.6087 1.633 0.2429
H 4.7985 -1.8769 -1.7874
H 8.873 2.9994 -1.0966
H 9.1766 2.2062 0.449
H 7.5383 3.4787 1.4228
H 7.233 4.2701 -0.1233
