76
F21_F4_F36_F5_F2_F35
C -5.9142 -3.0442 -3.1758
H -6.0511 -2.8208 -4.2355
H -5.6386 -4.0967 -3.0828
H -6.8631 -2.8939 -2.6575
C -1.5363000000000002 -1.2591 -1.4908
C -1.8100000000000005 -1.6036 -0.1702
C -2.5717000000000008 -1.1545 -2.432
C -3.1288 -1.8537 0.2475
C -3.8963 -1.4039 -2.0202
C -4.206 -1.758 -0.6763
N -0.23300000000000054 -1.0563 -1.7161
S -0.3922000000000003 -1.6749 0.8157
C 0.5141999999999998 -1.2327 -0.6117
H -2.3682000000000007 -0.9013 -3.4015
H -3.2959000000000005 -2.1045 1.2244
H -4.6386 -1.3233 -2.7188
C 2.4240999999999997 1.0327 -1.0278
N 2.2005999999999997 -0.3781 -0.7967
C 3.2436 -1.2754 -0.7274
O 3.0197 -2.4978 -0.536
C 4.6917 -0.9469 -0.8693
C 5.440099999999999 -1.036 0.4894
H 1.5141999999999998 1.6364 -0.97
H 3.1086 1.4312 -0.2757
H 2.8541999999999996 1.1842 -2.02
H 5.1345 -1.6462 -1.5844
H 4.8419 0.0502 -1.2835
H 5.3629999999999995 -2.05 0.8925
H 4.9394 -0.3725 1.2013
C 9.532499999999999 1.0354 -0.3588
C 9.195899999999998 0.551 0.925
C 8.507 1.2778 -1.2995
C 7.839199999999999 0.3151 1.2481
C 7.162299999999999 1.0405 -0.9679
C 6.8081 0.5532 0.3099
H 8.7295 1.6292 -2.2325
H 7.5992 -0.0373 2.1765
H 6.440099999999999 1.2292 -1.6678
O 11.174999999999999 0.3316 1.8022
C 11.1208 -0.1508 3.1489
H 12.1349 -0.2004 3.5454
H 10.532499999999999 0.5259 3.7707
H 10.6828 -1.1498 3.1765
C 20.3022 -5.879 -2.4937
O 13.1349 3.6951 1.572
C 14.4475 3.2206 1.9053
C 15.105 2.4552 0.7286
C 16.5111 1.9037 1.0854
C 17.1693 1.1364 -0.093
C 18.5734 0.5796 0.267
C 19.2073 -0.1361 -0.8623
N 18.6485 -1.2841 -1.3163
C 19.1252 -2.0979 -2.3917
C 19.4714 -3.5166 -1.8761
C 19.9571 -4.4629 -3.0064
O 20.2559 0.3317 -1.3674
H 19.4244 -6.3455 -2.0422
H 21.101399999999998 -5.8314 -1.7513
H 20.6373 -6.5011 -3.3259
H 14.4117 2.61 2.8094
H 15.0548 4.1001 2.1288
H 15.1888 3.1357 -0.1232
H 14.4628 1.6247 0.4294
H 16.4209 1.2293 1.9418
H 17.1575 2.7375 1.3741
H 17.262999999999998 1.8115 -0.949
H 16.5156 0.3082 -0.3822
H 18.491 -0.1101 1.1112
H 19.2118 1.411 0.5809
H 17.8431 -1.5868 -0.8673
H 20.0027 -1.6647 -2.8797
H 18.3268 -2.1641 -3.1341
H 18.5842 -3.9496 -1.4045
H 20.2548 -3.4339 -1.1171
H 19.177 -4.5494 -3.7677
H 20.8472 -4.038 -3.4785
