45
F38_F4_F1_F56
N 6.5369 0.3274 -1.1837
C 7.2435 1.5776 -1.0675
C 6.8774 -0.5644 -2.2627
H 8.3071 1.3899 -0.9071
H 6.881 2.1916 -0.2384
H 7.1249 2.1581 -1.9848
H 7.9364 -0.8251 -2.2088
H 6.6846 -0.0783 -3.2213
H 6.3057 -1.4963 -2.2368
C 12.4094 -1.2591 -1.4908
C 12.1357 -1.6036 -0.1702
C 11.373999999999999 -1.1545 -2.432
C 10.8169 -1.8537 0.2475
C 10.0494 -1.4039 -2.0202
C 9.7397 -1.758 -0.6763
N 13.7127 -1.0563 -1.7161
S 13.5535 -1.6749 0.8157
C 14.459900000000001 -1.2327 -0.6117
H 11.5775 -0.9013 -3.4015
H 10.649799999999999 -2.1045 1.2244
H 9.3071 -1.3233 -2.7188
N 15.459900000000001 -1.0549 -0.7103
C 16.4075 -1.1772 0.2523
O 16.1387 -1.4996 1.4339
C 17.8265 -0.9304 -0.0912
C 18.4096 0.3041 0.6508
H 15.7834 -0.8048 -1.5905
H 17.9251 -0.7816 -1.1703
H 18.4048 -1.8209 0.1705
H 17.8268 1.1946 0.3974
H 18.299300000000002 0.1491 1.7283
C 22.6868 -0.5593 -0.4813
C 22.3333 -1.6733 -1.2279
C 21.8564 -0.0751 0.5418
C 21.132600000000004 -2.3569 -0.9865
C 20.632600000000004 -0.7416 0.811
C 20.285600000000002 -1.8843 0.0382
O 23.8774 -0.0993 -0.9151
O 23.299100000000003 -1.9204 -2.1353
C 24.332300000000004 -0.9362 -1.9878
H 22.143800000000002 0.7488 1.0741
H 20.880700000000004 -3.1772 -1.5411
H 19.4096 -2.3809 0.2192
H 25.2802 -1.4111 -1.7283
H 24.443500000000004 -0.3563 -2.9059
