93
F46_F4_F1_F5_F27_F35
C -8.4258 -3.1929 0.6313
N -7.0017 -3.5927 0.4372
O -4.2928 -5.2018 1.7708
C -4.8882 -4.1101 1.6131
N -4.2459 -2.9348 1.3968
C -6.3645 -4.0945 1.697
C -6.8326 -4.5077 -0.7316
H -8.8298 -2.7557 -0.2843
H -8.5048 -2.434 1.4123
H -9.042 -4.0508 0.9122
H -4.8203 -2.1526 1.3719
H -6.7486 -5.0915 1.938
H -6.6192 -3.4404 2.5359
H -7.2445 -4.0529 -1.6349
H -5.7756 -4.6994 -0.9231
H -7.3351 -5.463 -0.5606
C -0.14359999999999973 -1.2591 -1.4908
C -0.4173 -1.6036 -0.1702
C -1.1790000000000003 -1.1545 -2.432
C -1.7360999999999995 -1.8537 0.2475
C -2.5035999999999996 -1.4039 -2.0202
C -2.8133 -1.758 -0.6763
N 1.1597 -1.0563 -1.7161
S 1.0005000000000002 -1.6749 0.8157
C 1.9069000000000003 -1.2327 -0.6117
H -0.9755000000000003 -0.9013 -3.4015
H -1.9032 -2.1045 1.2244
H -3.2459 -1.3233 -2.7188
N 2.9069000000000003 -1.0549 -0.7103
C 3.8545000000000003 -1.1772 0.2523
O 3.5857 -1.4996 1.4339
C 5.2735 -0.9304 -0.0912
C 5.8566 0.3041 0.6508
H 3.2304000000000004 -0.8048 -1.5905
H 5.3721 -0.7816 -1.1703
H 5.851800000000001 -1.8209 0.1705
H 5.2738 1.1946 0.3974
H 5.7463 0.1491 1.7283
C 9.949000000000002 1.0354 -0.3588
C 9.612400000000001 0.551 0.925
C 8.9235 1.2778 -1.2995
C 8.255700000000001 0.3151 1.2481
C 7.5788 1.0405 -0.9679
C 7.224600000000001 0.5532 0.3099
H 9.146 1.6292 -2.2325
H 8.0157 -0.0373 2.1765
H 6.8566 1.2292 -1.6678
C 11.626299999999999 -1.765 1.6205
C 12.8212 -0.9944 2.0677
C 15.344999999999999 -0.5753 1.7363
O 16.493499999999997 -1.0065 0.9941
C 14.110599999999998 -1.3982 1.301
O 11.248999999999999 -2.6465 2.4316
H 13.000499999999999 -1.1731 3.1334
H 12.6276 0.0754 1.9702
H 15.527899999999999 -0.7204 2.8042
H 15.1661 0.4858 1.5435
H 14.316099999999999 -2.4573 1.482
H 13.9706 -1.265 0.2261
H 10.949 -1.5876 0.4342
C 24.6608 -5.879 -2.4937
O 17.493499999999997 3.6951 1.572
C 18.8061 3.2206 1.9053
C 19.4636 2.4552 0.7286
C 20.869699999999998 1.9037 1.0854
C 21.5279 1.1364 -0.093
C 22.932 0.5796 0.267
C 23.5659 -0.1361 -0.8623
N 23.0071 -1.2841 -1.3163
C 23.4838 -2.0979 -2.3917
C 23.83 -3.5166 -1.8761
C 24.3157 -4.4629 -3.0064
O 24.6145 0.3317 -1.3674
H 23.783 -6.3455 -2.0422
H 25.46 -5.8314 -1.7513
H 24.9959 -6.5011 -3.3259
H 18.7703 2.61 2.8094
H 19.4134 4.1001 2.1288
H 19.5474 3.1357 -0.1232
H 18.8214 1.6247 0.4294
H 20.7795 1.2293 1.9418
H 21.516099999999998 2.7375 1.3741
H 21.6216 1.8115 -0.949
H 20.8742 0.3082 -0.3822
H 22.8496 -0.1101 1.1112
H 23.5704 1.411 0.5809
H 22.2017 -1.5868 -0.8673
H 24.3613 -1.6647 -2.8797
H 22.685399999999998 -2.1641 -3.1341
H 22.9428 -3.9496 -1.4045
H 24.6134 -3.4339 -1.1171
H 23.5356 -4.5494 -3.7677
H 25.205799999999996 -4.038 -3.4785
