51
F4_F1_F5_F27_F40
C -3.7933 -1.2591 -1.4908
C -4.067 -1.6036 -0.1702
C -4.8287 -1.1545 -2.432
C -5.3858 -1.8537 0.2475
C -6.1533 -1.4039 -2.0202
C -6.463 -1.758 -0.6763
N -2.49 -1.0563 -1.7161
S -2.6492 -1.6749 0.8157
C -1.7428 -1.2327 -0.6117
H -4.6252 -0.9013 -3.4015
H -5.5529 -2.1045 1.2244
H -6.8956 -1.3233 -2.7188
H -7.7509 -1.998 -0.2865
N -0.7428 -1.0549 -0.7103
C 0.20479999999999998 -1.1772 0.2523
O -0.064 -1.4996 1.4339
C 1.6238 -0.9304 -0.0912
C 2.2069 0.3041 0.6508
H -0.4193 -0.8048 -1.5905
H 1.7224 -0.7816 -1.1703
H 2.2021 -1.8209 0.1705
H 1.6240999999999999 1.1946 0.3974
H 2.0966 0.1491 1.7283
C 6.299300000000001 1.0354 -0.3588
C 5.9627 0.551 0.925
C 5.2738000000000005 1.2778 -1.2995
C 4.606 0.3151 1.2481
C 3.9291 1.0405 -0.9679
C 3.5749000000000004 0.5532 0.3099
H 5.496300000000001 1.6292 -2.2325
H 4.3660000000000005 -0.0373 2.1765
H 3.2069 1.2292 -1.6678
C 7.9765999999999995 -1.765 1.6205
C 9.1715 -0.9944 2.0677
C 11.6953 -0.5753 1.7363
O 12.8438 -1.0065 0.9941
C 10.460899999999999 -1.3982 1.301
O 7.5992999999999995 -2.6465 2.4316
H 9.3508 -1.1731 3.1334
H 8.9779 0.0754 1.9702
H 11.8782 -0.7204 2.8042
H 11.5164 0.4858 1.5435
H 10.6664 -2.4573 1.482
H 10.3209 -1.265 0.2261
H 7.299300000000001 -1.5876 0.4342
N 14.548599999999999 -0.6826 -2.4804
C 15.798499999999999 -0.7737 -3.155
H 13.843799999999998 -1.2486 -2.8342
H 15.704799999999999 -1.4935 -3.9684
H 16.0769 0.1918 -3.5804
H 16.5775 -1.1225 -2.4751
