55
F50_F4_F1_F5_F32_F18
C -7.6964 -3.3071 -0.5026
C -7.5919 -1.8719 0.0625
H -8.7016 -3.6971 -0.3315
H -7.5024 -3.3076 -1.5774
H -6.9821 -3.9715 -0.0125
H -8.3821 -1.2729 -0.3988
H -7.7939 -1.8921 1.1367
C -2.8798 -1.2591 -1.4908
C -3.1535 -1.6036 -0.1702
C -3.9152000000000005 -1.1545 -2.432
C -4.4723 -1.8537 0.2475
C -5.2398 -1.4039 -2.0202
C -5.5495 -1.758 -0.6763
N -1.5765000000000002 -1.0563 -1.7161
S -1.7357 -1.6749 0.8157
C -0.8292999999999999 -1.2327 -0.6117
H -3.7117000000000004 -0.9013 -3.4015
H -4.6394 -2.1045 1.2244
H -5.9821 -1.3233 -2.7188
N 0.17070000000000007 -1.0549 -0.7103
C 1.1183 -1.1772 0.2523
O 0.8495000000000001 -1.4996 1.4339
C 2.5373 -0.9304 -0.0912
C 3.1204 0.3041 0.6508
H 0.4942000000000001 -0.8048 -1.5905
H 2.6359 -0.7816 -1.1703
H 3.1156 -1.8209 0.1705
H 2.5376 1.1946 0.3974
H 3.0101 0.1491 1.7283
C 7.2128000000000005 1.0354 -0.3588
C 6.8762 0.551 0.925
C 6.1873000000000005 1.2778 -1.2995
C 5.5195 0.3151 1.2481
C 4.8426 1.0405 -0.9679
C 4.4884 0.5532 0.3099
H 6.409800000000001 1.6292 -2.2325
H 5.2795000000000005 -0.0373 2.1765
H 4.1204 1.2292 -1.6678
C 10.514600000000002 -1.0292 -0.4521
O 8.212800000000001 -0.455 0.0669
C 9.0306 -1.3728 -0.671
H 10.764 -1.1021 0.6082
H 11.143799999999999 -1.7241 -1.0112
H 10.719000000000001 -0.0134 -0.7957
H 8.7972 -1.3023 -1.7362
H 8.842300000000002 -2.3935 -0.3291
C 15.8301 -1.1295 1.1065
N 13.494 -1.8312 0.9458
C 14.391499999999999 -0.8816 1.3083
O 14.0603 0.2158 1.8158
O 16.354 -0.1494 0.2012
H 15.9994 -2.1279 0.6941
H 16.342 -1.0585 2.0692
H 13.8683 -2.6415 0.5647
H 12.143799999999999 -1.8029 1.0424
