46
F29_F4_F1_F5_F32_F40
F 7.5191 -0.4893 0.2975
C 11.6214 -1.2591 -1.4908
C 11.3477 -1.6036 -0.1702
C 10.585999999999999 -1.1545 -2.432
C 10.0289 -1.8537 0.2475
C 9.2614 -1.4039 -2.0202
C 8.951699999999999 -1.758 -0.6763
N 12.9247 -1.0563 -1.7161
S 12.7655 -1.6749 0.8157
C 13.6719 -1.2327 -0.6117
H 10.7895 -0.9013 -3.4015
H 9.861799999999999 -2.1045 1.2244
H 8.5191 -1.3233 -2.7188
N 14.6719 -1.0549 -0.7103
C 15.6195 -1.1772 0.2523
O 15.3507 -1.4996 1.4339
C 17.0385 -0.9304 -0.0912
C 17.6216 0.3041 0.6508
H 14.9954 -0.8048 -1.5905
H 17.1371 -0.7816 -1.1703
H 17.6168 -1.8209 0.1705
H 17.038800000000002 1.1946 0.3974
H 17.5113 0.1491 1.7283
C 21.714000000000002 1.0354 -0.3588
C 21.3774 0.551 0.925
C 20.6885 1.2778 -1.2995
C 20.0207 0.3151 1.2481
C 19.3438 1.0405 -0.9679
C 18.989600000000003 0.5532 0.3099
H 20.911 1.6292 -2.2325
H 19.780700000000003 -0.0373 2.1765
H 18.6216 1.2292 -1.6678
C 25.015800000000002 -1.0292 -0.4521
O 22.714000000000002 -0.455 0.0669
C 23.531800000000004 -1.3728 -0.671
H 25.2652 -1.1021 0.6082
H 25.645000000000003 -1.7241 -1.0112
H 25.220200000000002 -0.0134 -0.7957
H 23.2984 -1.3023 -1.7362
H 23.343500000000002 -2.3935 -0.3291
N 27.349800000000002 -0.6826 -2.4804
C 28.599700000000006 -0.7737 -3.155
H 26.645000000000003 -1.2486 -2.8342
H 28.506000000000004 -1.4935 -3.9684
H 28.878100000000003 0.1918 -3.5804
H 29.378700000000002 -1.1225 -2.4751
