49
F50_F4_F36_F5_F25_F51
C -7.6964 -3.3071 -0.5026
C -7.5919 -1.8719 0.0625
H -8.7016 -3.6971 -0.3315
H -7.5024 -3.3076 -1.5774
H -6.9821 -3.9715 -0.0125
H -8.3821 -1.2729 -0.3988
H -7.7939 -1.8921 1.1367
C -2.8798 -1.2591 -1.4908
C -3.1535 -1.6036 -0.1702
C -3.9152000000000005 -1.1545 -2.432
C -4.4723 -1.8537 0.2475
C -5.2398 -1.4039 -2.0202
C -5.5495 -1.758 -0.6763
N -1.5765000000000002 -1.0563 -1.7161
S -1.7357 -1.6749 0.8157
C -0.8292999999999999 -1.2327 -0.6117
H -3.7117000000000004 -0.9013 -3.4015
H -4.6394 -2.1045 1.2244
H -5.9821 -1.3233 -2.7188
C 1.0806 1.0327 -1.0278
N 0.8571000000000002 -0.3781 -0.7967
C 1.9001000000000001 -1.2754 -0.7274
O 1.6762000000000001 -2.4978 -0.536
C 3.3482000000000003 -0.9469 -0.8693
C 4.0966000000000005 -1.036 0.4894
H 0.17070000000000007 1.6364 -0.97
H 1.7651000000000001 1.4312 -0.2757
H 1.5107000000000002 1.1842 -2.02
H 3.7910000000000004 -1.6462 -1.5844
H 3.4984 0.0502 -1.2835
H 4.019500000000001 -2.05 0.8925
H 3.5959000000000003 -0.3725 1.2013
C 8.189 1.0354 -0.3588
C 7.8524 0.551 0.925
C 7.163500000000001 1.2778 -1.2995
C 6.4957 0.3151 1.2481
C 5.8188 1.0405 -0.9679
C 5.464600000000001 0.5532 0.3099
H 7.386000000000001 1.6292 -2.2325
H 6.255700000000001 -0.0373 2.1765
H 5.0966000000000005 1.2292 -1.6678
N 9.831700000000001 1.3119 2.3492
H 9.189 1.5171 3.0466
H 10.7619 1.5619 2.4652
F 11.761900000000002 -1.2311 0.0678
F 12.594300000000002 0.8016 -0.2701
F 12.779600000000002 -0.1838 1.7431
C 12.795400000000003 -0.3884 0.3852
O 14.019400000000001 -1.008 -0.0307
