54
F50_F4_F6_F5_F32_F2
C -7.6964 -3.3071 -0.5026
C -7.5919 -1.8719 0.0625
H -8.7016 -3.6971 -0.3315
H -7.5024 -3.3076 -1.5774
H -6.9821 -3.9715 -0.0125
H -8.3821 -1.2729 -0.3988
H -7.7939 -1.8921 1.1367
C -2.8798 -1.2591 -1.4908
C -3.1535 -1.6036 -0.1702
C -3.9152000000000005 -1.1545 -2.432
C -4.4723 -1.8537 0.2475
C -5.2398 -1.4039 -2.0202
C -5.5495 -1.758 -0.6763
N -1.5765000000000002 -1.0563 -1.7161
S -1.7357 -1.6749 0.8157
C -0.8292999999999999 -1.2327 -0.6117
H -3.7117000000000004 -0.9013 -3.4015
H -4.6394 -2.1045 1.2244
H -5.9821 -1.3233 -2.7188
C 2.4019000000000004 -2.5141 -0.7382
C 2.3264 -2.9815 0.735
N 1.1504 -2.4707 1.4256
C 1.2091 -1.5278 2.4314
O 0.17070000000000007 -1.2281 3.0748
C 2.4268 -0.781 2.8637
H 3.3296 -2.8669 -1.1929
H 1.5632000000000001 -2.9129 -1.3116
H 2.3791 -1.4245 -0.792
H 3.2575000000000003 -2.6878 1.2157
H 2.3381 -4.0742 0.7577
H 3.1771000000000003 -1.5006 3.1989
H 2.2047 -0.1571 3.7356
C 7.422000000000001 1.0354 -0.3588
C 7.0854 0.551 0.925
C 6.3965000000000005 1.2778 -1.2995
C 5.7287 0.3151 1.2481
C 5.0518 1.0405 -0.9679
C 4.6976 0.5532 0.3099
H 6.619000000000001 1.6292 -2.2325
H 5.488700000000001 -0.0373 2.1765
H 4.3296 1.2292 -1.6678
C 10.7238 -1.0292 -0.4521
O 8.422 -0.455 0.0669
C 9.2398 -1.3728 -0.671
H 10.9732 -1.1021 0.6082
H 11.353 -1.7241 -1.0112
H 10.9282 -0.0134 -0.7957
H 9.0064 -1.3023 -1.7362
H 9.0515 -2.3935 -0.3291
O 12.9955 0.3316 1.8022
C 12.9413 -0.1508 3.1489
H 13.955400000000001 -0.2004 3.5454
H 12.353 0.5259 3.7707
H 12.5033 -1.1498 3.1765
