68
F4_F1_F5_F25_F35
C -3.7933 -1.2591 -1.4908
C -4.067 -1.6036 -0.1702
C -4.8287 -1.1545 -2.432
C -5.3858 -1.8537 0.2475
C -6.1533 -1.4039 -2.0202
C -6.463 -1.758 -0.6763
N -2.49 -1.0563 -1.7161
S -2.6492 -1.6749 0.8157
C -1.7428 -1.2327 -0.6117
H -4.6252 -0.9013 -3.4015
H -5.5529 -2.1045 1.2244
H -6.8956 -1.3233 -2.7188
H -7.7509 -1.998 -0.2865
N -0.7428 -1.0549 -0.7103
C 0.20479999999999998 -1.1772 0.2523
O -0.064 -1.4996 1.4339
C 1.6238 -0.9304 -0.0912
C 2.2069 0.3041 0.6508
H -0.4193 -0.8048 -1.5905
H 1.7224 -0.7816 -1.1703
H 2.2021 -1.8209 0.1705
H 1.6240999999999999 1.1946 0.3974
H 2.0966 0.1491 1.7283
C 6.299300000000001 1.0354 -0.3588
C 5.9627 0.551 0.925
C 5.2738000000000005 1.2778 -1.2995
C 4.606 0.3151 1.2481
C 3.9291 1.0405 -0.9679
C 3.5749000000000004 0.5532 0.3099
H 5.496300000000001 1.6292 -2.2325
H 4.3660000000000005 -0.0373 2.1765
H 3.2069 1.2292 -1.6678
N 7.942000000000001 1.3119 2.3492
H 7.299300000000001 1.5171 3.0466
H 8.872200000000001 1.5619 2.4652
C 17.0395 -5.879 -2.4937
O 9.872200000000001 3.6951 1.572
C 11.184800000000001 3.2206 1.9053
C 11.842300000000002 2.4552 0.7286
C 13.2484 1.9037 1.0854
C 13.906600000000001 1.1364 -0.093
C 15.3107 0.5796 0.267
C 15.944600000000001 -0.1361 -0.8623
N 15.385800000000001 -1.2841 -1.3163
C 15.8625 -2.0979 -2.3917
C 16.2087 -3.5166 -1.8761
C 16.6944 -4.4629 -3.0064
O 16.9932 0.3317 -1.3674
H 16.161700000000003 -6.3455 -2.0422
H 17.838700000000003 -5.8314 -1.7513
H 17.3746 -6.5011 -3.3259
H 11.149000000000001 2.61 2.8094
H 11.792100000000001 4.1001 2.1288
H 11.926100000000002 3.1357 -0.1232
H 11.2001 1.6247 0.4294
H 13.1582 1.2293 1.9418
H 13.8948 2.7375 1.3741
H 14.000300000000001 1.8115 -0.949
H 13.2529 0.3082 -0.3822
H 15.2283 -0.1101 1.1112
H 15.949100000000001 1.411 0.5809
H 14.580400000000001 -1.5868 -0.8673
H 16.740000000000002 -1.6647 -2.8797
H 15.0641 -2.1641 -3.1341
H 15.3215 -3.9496 -1.4045
H 16.9921 -3.4339 -1.1171
H 15.9143 -4.5494 -3.7677
H 17.5845 -4.038 -3.4785
