27
#######
O 1.4591 -0.812 -4.6899
N -7.5035 -1.0701 -0.1835
C -6.7475 -0.0303 -0.6143
S -7.2717 1.6363 -0.5762
N -5.5093 -0.3786 -1.0379
C -4.4977 0.5069 -1.5211
C -3.2255 -0.2839 -1.9143
C -2.0912 0.6324 -2.4473
C -0.8157 -0.1608 -2.8406
C 0.3176 0.7564 -3.3752
C 1.5361 -0.0042 -3.7342
N 2.6865 0.224 -3.051
H -7.0456 -1.9232 -0.1295
H -5.2877 -1.3234 -1.0107
H -4.2465 1.2302 -0.7405
H -4.8743 1.044 -2.396
H -2.8632 -0.829 -1.0377
H -3.4878 -1.0143 -2.6854
H -1.8324 1.3629 -1.6754
H -2.4555 1.1768 -3.3233
H -0.4498 -0.7034 -1.9636
H -1.0791 -0.8934 -3.6093
H 0.5536 1.5042 -2.6124
H -0.0306 1.2909 -4.2631
H 2.6381 0.9318 -2.3887
H 3.9044 -0.3671 -3.1766
H -8.7925 -1.0838 0.2385