73
F12_F4_F1_F5_F32_F35
I -8.6378 -1.6419 1.5252
C -4.535500000000001 -1.2591 -1.4908
C -4.809200000000001 -1.6036 -0.1702
C -5.570900000000001 -1.1545 -2.432
C -6.128 -1.8537 0.2475
C -6.8955 -1.4039 -2.0202
C -7.2052000000000005 -1.758 -0.6763
N -3.2322000000000006 -1.0563 -1.7161
S -3.3914000000000004 -1.6749 0.8157
C -2.4850000000000003 -1.2327 -0.6117
H -5.367400000000001 -0.9013 -3.4015
H -6.295100000000001 -2.1045 1.2244
H -7.6378 -1.3233 -2.7188
N -1.4850000000000003 -1.0549 -0.7103
C -0.5374000000000004 -1.1772 0.2523
O -0.8062000000000005 -1.4996 1.4339
C 0.8815999999999995 -0.9304 -0.0912
C 1.4646999999999997 0.3041 0.6508
H -1.1615000000000004 -0.8048 -1.5905
H 0.9801999999999995 -0.7816 -1.1703
H 1.4598999999999998 -1.8209 0.1705
H 0.8818999999999995 1.1946 0.3974
H 1.3543999999999996 0.1491 1.7283
C 5.5571 1.0354 -0.3588
C 5.2204999999999995 0.551 0.925
C 4.5316 1.2778 -1.2995
C 3.8637999999999995 0.3151 1.2481
C 3.1868999999999996 1.0405 -0.9679
C 2.8327 0.5532 0.3099
H 4.7541 1.6292 -2.2325
H 3.6238 -0.0373 2.1765
H 2.4646999999999997 1.2292 -1.6678
C 8.8589 -1.0292 -0.4521
O 6.5571 -0.455 0.0669
C 7.3749 -1.3728 -0.671
H 9.1083 -1.1021 0.6082
H 9.4881 -1.7241 -1.0112
H 9.0633 -0.0134 -0.7957
H 7.1415 -1.3023 -1.7362
H 7.1866 -2.3935 -0.3291
C 17.6554 -5.879 -2.4937
O 10.4881 3.6951 1.572
C 11.800699999999999 3.2206 1.9053
C 12.4582 2.4552 0.7286
C 13.8643 1.9037 1.0854
C 14.522499999999999 1.1364 -0.093
C 15.926599999999999 0.5796 0.267
C 16.560499999999998 -0.1361 -0.8623
N 16.0017 -1.2841 -1.3163
C 16.4784 -2.0979 -2.3917
C 16.8246 -3.5166 -1.8761
C 17.310299999999998 -4.4629 -3.0064
O 17.609099999999998 0.3317 -1.3674
H 16.7776 -6.3455 -2.0422
H 18.4546 -5.8314 -1.7513
H 17.990499999999997 -6.5011 -3.3259
H 11.764899999999999 2.61 2.8094
H 12.408 4.1001 2.1288
H 12.542 3.1357 -0.1232
H 11.815999999999999 1.6247 0.4294
H 13.774099999999999 1.2293 1.9418
H 14.5107 2.7375 1.3741
H 14.6162 1.8115 -0.949
H 13.8688 0.3082 -0.3822
H 15.844199999999999 -0.1101 1.1112
H 16.564999999999998 1.411 0.5809
H 15.196299999999999 -1.5868 -0.8673
H 17.3559 -1.6647 -2.8797
H 15.68 -2.1641 -3.1341
H 15.9374 -3.9496 -1.4045
H 17.607999999999997 -3.4339 -1.1171
H 16.5302 -4.5494 -3.7677
H 18.2004 -4.038 -3.4785
