68
F46_F4_F6_F5_F18_F18
C -8.4258 -3.1929 0.6313
N -7.0017 -3.5927 0.4372
O -4.2928 -5.2018 1.7708
C -4.8882 -4.1101 1.6131
N -4.2459 -2.9348 1.3968
C -6.3645 -4.0945 1.697
C -6.8326 -4.5077 -0.7316
H -8.8298 -2.7557 -0.2843
H -8.5048 -2.434 1.4123
H -9.042 -4.0508 0.9122
H -4.8203 -2.1526 1.3719
H -6.7486 -5.0915 1.938
H -6.6192 -3.4404 2.5359
H -7.2445 -4.0529 -1.6349
H -5.7756 -4.6994 -0.9231
H -7.3351 -5.463 -0.5606
C -0.14359999999999973 -1.2591 -1.4908
C -0.4173 -1.6036 -0.1702
C -1.1790000000000003 -1.1545 -2.432
C -1.7360999999999995 -1.8537 0.2475
C -2.5035999999999996 -1.4039 -2.0202
C -2.8133 -1.758 -0.6763
N 1.1597 -1.0563 -1.7161
S 1.0005000000000002 -1.6749 0.8157
C 1.9069000000000003 -1.2327 -0.6117
H -0.9755000000000003 -0.9013 -3.4015
H -1.9032 -2.1045 1.2244
H -3.2459 -1.3233 -2.7188
C 5.1381000000000006 -2.5141 -0.7382
C 5.0626 -2.9815 0.735
N 3.8866000000000005 -2.4707 1.4256
C 3.9453000000000005 -1.5278 2.4314
O 2.9069000000000003 -1.2281 3.0748
C 5.163 -0.781 2.8637
H 6.0658 -2.8669 -1.1929
H 4.2994 -2.9129 -1.3116
H 5.1153 -1.4245 -0.792
H 5.9937000000000005 -2.6878 1.2157
H 5.0743 -4.0742 0.7577
H 5.9133000000000004 -1.5006 3.1989
H 4.9409 -0.1571 3.7356
C 10.1582 1.0354 -0.3588
C 9.8216 0.551 0.925
C 9.1327 1.2778 -1.2995
C 8.4649 0.3151 1.2481
C 7.788 1.0405 -0.9679
C 7.433800000000001 0.5532 0.3099
H 9.3552 1.6292 -2.2325
H 8.224900000000002 -0.0373 2.1765
H 7.0658 1.2292 -1.6678
C 14.844500000000002 -1.1295 1.1065
N 12.508400000000002 -1.8312 0.9458
C 13.4059 -0.8816 1.3083
O 13.074700000000002 0.2158 1.8158
O 15.368400000000001 -0.1494 0.2012
H 15.013800000000002 -2.1279 0.6941
H 15.3564 -1.0585 2.0692
H 12.882700000000002 -2.6415 0.5647
H 11.1582 -1.8029 1.0424
C 20.0547 -1.1295 1.1065
N 17.7186 -1.8312 0.9458
C 18.6161 -0.8816 1.3083
O 18.2849 0.2158 1.8158
O 20.5786 -0.1494 0.2012
H 20.224 -2.1279 0.6941
H 20.5666 -1.0585 2.0692
H 18.0929 -2.6415 0.5647
H 16.3684 -1.8029 1.0424
