83
F48_F4_F1_F5_F27_F35
O -3.7388 -5.2357 -1.3962
S -3.6286 -4.7302 0.1085
N -2.0179 -4.289 0.3877
O -3.9406 -5.9747 1.0477
H -1.5671 -4.7494 1.1133
H -4.7796 -3.456 0.4746
C 2.5352 -1.2591 -1.4908
C 2.2615 -1.6036 -0.1702
C 1.4997999999999996 -1.1545 -2.432
C 0.9427000000000003 -1.8537 0.2475
C 0.17520000000000024 -1.4039 -2.0202
C -0.13450000000000006 -1.758 -0.6763
N 3.8385 -1.0563 -1.7161
S 3.6793 -1.6749 0.8157
C 4.5857 -1.2327 -0.6117
H 1.7032999999999996 -0.9013 -3.4015
H 0.7755999999999998 -2.1045 1.2244
H -0.5670999999999999 -1.3233 -2.7188
N 5.5857 -1.0549 -0.7103
C 6.5333000000000006 -1.1772 0.2523
O 6.264500000000001 -1.4996 1.4339
C 7.9523 -0.9304 -0.0912
C 8.535400000000001 0.3041 0.6508
H 5.9092 -0.8048 -1.5905
H 8.0509 -0.7816 -1.1703
H 8.5306 -1.8209 0.1705
H 7.9526 1.1946 0.3974
H 8.4251 0.1491 1.7283
C 12.6278 1.0354 -0.3588
C 12.2912 0.551 0.925
C 11.602300000000001 1.2778 -1.2995
C 10.9345 0.3151 1.2481
C 10.2576 1.0405 -0.9679
C 9.903400000000001 0.5532 0.3099
H 11.824800000000002 1.6292 -2.2325
H 10.694500000000001 -0.0373 2.1765
H 9.535400000000001 1.2292 -1.6678
C 14.305100000000001 -1.765 1.6205
C 15.500000000000002 -0.9944 2.0677
C 18.0238 -0.5753 1.7363
O 19.1723 -1.0065 0.9941
C 16.7894 -1.3982 1.301
O 13.927800000000001 -2.6465 2.4316
H 15.679300000000001 -1.1731 3.1334
H 15.306400000000002 0.0754 1.9702
H 18.2067 -0.7204 2.8042
H 17.844900000000003 0.4858 1.5435
H 16.9949 -2.4573 1.482
H 16.6494 -1.265 0.2261
H 13.627800000000002 -1.5876 0.4342
C 27.3396 -5.879 -2.4937
O 20.1723 3.6951 1.572
C 21.484900000000003 3.2206 1.9053
C 22.142400000000002 2.4552 0.7286
C 23.5485 1.9037 1.0854
C 24.2067 1.1364 -0.093
C 25.6108 0.5796 0.267
C 26.2447 -0.1361 -0.8623
N 25.685900000000004 -1.2841 -1.3163
C 26.1626 -2.0979 -2.3917
C 26.5088 -3.5166 -1.8761
C 26.994500000000002 -4.4629 -3.0064
O 27.293300000000002 0.3317 -1.3674
H 26.461800000000004 -6.3455 -2.0422
H 28.138800000000003 -5.8314 -1.7513
H 27.6747 -6.5011 -3.3259
H 21.4491 2.61 2.8094
H 22.092200000000002 4.1001 2.1288
H 22.226200000000002 3.1357 -0.1232
H 21.500200000000003 1.6247 0.4294
H 23.4583 1.2293 1.9418
H 24.1949 2.7375 1.3741
H 24.300400000000003 1.8115 -0.949
H 23.553 0.3082 -0.3822
H 25.5284 -0.1101 1.1112
H 26.249200000000002 1.411 0.5809
H 24.8805 -1.5868 -0.8673
H 27.040100000000002 -1.6647 -2.8797
H 25.3642 -2.1641 -3.1341
H 25.6216 -3.9496 -1.4045
H 27.2922 -3.4339 -1.1171
H 26.2144 -4.5494 -3.7677
H 27.8846 -4.038 -3.4785
