44
F22_F4_F1_F5_F40_F9
C -8.4552 -2.5577 -1.2042
C -7.4938 -1.9296 -0.4001
H -9.4284 -2.5872 -0.8941
H -8.2235 -2.992 -2.0963
H -7.853 -1.5315 0.4731
C -3.3915 -1.2591 -1.4908
C -3.6652000000000005 -1.6036 -0.1702
C -4.426900000000001 -1.1545 -2.432
C -4.984 -1.8537 0.2475
C -5.7515 -1.4039 -2.0202
C -6.0612 -1.758 -0.6763
N -2.0882000000000005 -1.0563 -1.7161
S -2.2474000000000003 -1.6749 0.8157
C -1.3410000000000002 -1.2327 -0.6117
H -4.223400000000001 -0.9013 -3.4015
H -5.1511000000000005 -2.1045 1.2244
H -6.4938 -1.3233 -2.7188
N -0.3410000000000002 -1.0549 -0.7103
C 0.6065999999999998 -1.1772 0.2523
O 0.3377999999999998 -1.4996 1.4339
C 2.0256 -0.9304 -0.0912
C 2.6087 0.3041 0.6508
H -0.017500000000000182 -0.8048 -1.5905
H 2.1241999999999996 -0.7816 -1.1703
H 2.6039 -1.8209 0.1705
H 2.0258999999999996 1.1946 0.3974
H 2.4983999999999997 0.1491 1.7283
C 6.7011 1.0354 -0.3588
C 6.3645 0.551 0.925
C 5.6756 1.2778 -1.2995
C 5.0078 0.3151 1.2481
C 4.3309 1.0405 -0.9679
C 3.9767 0.5532 0.3099
H 5.8981 1.6292 -2.2325
H 4.7678 -0.0373 2.1765
H 3.6087 1.2292 -1.6678
N 8.405899999999999 -0.6826 -2.4804
C 9.6558 -0.7737 -3.155
H 7.7011 -1.2486 -2.8342
H 9.562100000000001 -1.4935 -3.9684
H 9.9342 0.1918 -3.5804
H 10.4348 -1.1225 -2.4751
O 11.4348 -2.9391 2.0505
H 12.662999999999998 -3.1549 1.947
