46
F29_F4_F1_F5_F51_F18
F 7.5191 -0.4893 0.2975
C 11.6214 -1.2591 -1.4908
C 11.3477 -1.6036 -0.1702
C 10.585999999999999 -1.1545 -2.432
C 10.0289 -1.8537 0.2475
C 9.2614 -1.4039 -2.0202
C 8.951699999999999 -1.758 -0.6763
N 12.9247 -1.0563 -1.7161
S 12.7655 -1.6749 0.8157
C 13.6719 -1.2327 -0.6117
H 10.7895 -0.9013 -3.4015
H 9.861799999999999 -2.1045 1.2244
H 8.5191 -1.3233 -2.7188
N 14.6719 -1.0549 -0.7103
C 15.6195 -1.1772 0.2523
O 15.3507 -1.4996 1.4339
C 17.0385 -0.9304 -0.0912
C 17.6216 0.3041 0.6508
H 14.9954 -0.8048 -1.5905
H 17.1371 -0.7816 -1.1703
H 17.6168 -1.8209 0.1705
H 17.038800000000002 1.1946 0.3974
H 17.5113 0.1491 1.7283
C 21.714000000000002 1.0354 -0.3588
C 21.3774 0.551 0.925
C 20.6885 1.2778 -1.2995
C 20.0207 0.3151 1.2481
C 19.3438 1.0405 -0.9679
C 18.989600000000003 0.5532 0.3099
H 20.911 1.6292 -2.2325
H 19.780700000000003 -0.0373 2.1765
H 18.6216 1.2292 -1.6678
F 22.714000000000006 -1.2311 0.0678
F 23.546400000000006 0.8016 -0.2701
F 23.731700000000004 -0.1838 1.7431
C 23.747500000000002 -0.3884 0.3852
O 24.971500000000002 -1.008 -0.0307
C 29.6578 -1.1295 1.1065
N 27.3217 -1.8312 0.9458
C 28.2192 -0.8816 1.3083
O 27.888 0.2158 1.8158
O 30.1817 -0.1494 0.2012
H 29.8271 -2.1279 0.6941
H 30.169700000000002 -1.0585 2.0692
H 27.696 -2.6415 0.5647
H 25.971500000000002 -1.8029 1.0424
