51
F43_F4_F1_F5_F11_F2
F -9.1072 -3.8069 0.1789
F -9.8111 -2.7747 1.9987
C -9.1891 -2.5777 0.7877
F -10.0187 -1.7758 0.0413
C -5.004900000000001 -1.2591 -1.4908
C -5.278600000000001 -1.6036 -0.1702
C -6.040300000000001 -1.1545 -2.432
C -6.5974 -1.8537 0.2475
C -7.3649000000000004 -1.4039 -2.0202
C -7.674600000000001 -1.758 -0.6763
N -3.701600000000001 -1.0563 -1.7161
S -3.8608000000000007 -1.6749 0.8157
C -2.9544000000000006 -1.2327 -0.6117
H -5.836800000000001 -0.9013 -3.4015
H -6.764500000000001 -2.1045 1.2244
H -8.1072 -1.3233 -2.7188
N -1.9544000000000006 -1.0549 -0.7103
C -1.0068000000000006 -1.1772 0.2523
O -1.2756000000000007 -1.4996 1.4339
C 0.41219999999999923 -0.9304 -0.0912
C 0.9952999999999994 0.3041 0.6508
H -1.6309000000000007 -0.8048 -1.5905
H 0.5107999999999993 -0.7816 -1.1703
H 0.9904999999999995 -1.8209 0.1705
H 0.4124999999999992 1.1946 0.3974
H 0.8849999999999993 0.1491 1.7283
C 5.0877 1.0354 -0.3588
C 4.751099999999999 0.551 0.925
C 4.0622 1.2778 -1.2995
C 3.394399999999999 0.3151 1.2481
C 2.7174999999999994 1.0405 -0.9679
C 2.3632999999999997 0.5532 0.3099
H 4.2847 1.6292 -2.2325
H 3.1544 -0.0373 2.1765
H 1.9952999999999994 1.2292 -1.6678
O 6.0877 -1.4963 -0.5423
C 7.5077 -1.5749 -0.7185
C 7.8292 -1.7276 -2.2225
C 9.344899999999999 -1.8202 -2.5058
H 7.8953 -2.4386 -0.1724
H 7.973199999999999 -0.663 -0.3361
H 7.4209 -0.8701 -2.764
H 7.3437 -2.6308 -2.6017
H 9.7753 -2.6859 -1.9984
H 9.8528 -0.9171 -2.1614
H 9.5135 -1.9265 -3.579
O 11.4953 0.3316 1.8022
C 11.4411 -0.1508 3.1489
H 12.455200000000001 -0.2004 3.5454
H 10.8528 0.5259 3.7707
H 11.0031 -1.1498 3.1765
