61
F38_F4_F1_F5_F32_F27
N 6.5369 0.3274 -1.1837
C 7.2435 1.5776 -1.0675
C 6.8774 -0.5644 -2.2627
H 8.3071 1.3899 -0.9071
H 6.881 2.1916 -0.2384
H 7.1249 2.1581 -1.9848
H 7.9364 -0.8251 -2.2088
H 6.6846 -0.0783 -3.2213
H 6.3057 -1.4963 -2.2368
C 12.4094 -1.2591 -1.4908
C 12.1357 -1.6036 -0.1702
C 11.373999999999999 -1.1545 -2.432
C 10.8169 -1.8537 0.2475
C 10.0494 -1.4039 -2.0202
C 9.7397 -1.758 -0.6763
N 13.7127 -1.0563 -1.7161
S 13.5535 -1.6749 0.8157
C 14.459900000000001 -1.2327 -0.6117
H 11.5775 -0.9013 -3.4015
H 10.649799999999999 -2.1045 1.2244
H 9.3071 -1.3233 -2.7188
N 15.459900000000001 -1.0549 -0.7103
C 16.4075 -1.1772 0.2523
O 16.1387 -1.4996 1.4339
C 17.8265 -0.9304 -0.0912
C 18.4096 0.3041 0.6508
H 15.7834 -0.8048 -1.5905
H 17.9251 -0.7816 -1.1703
H 18.4048 -1.8209 0.1705
H 17.8268 1.1946 0.3974
H 18.299300000000002 0.1491 1.7283
C 22.502000000000002 1.0354 -0.3588
C 22.1654 0.551 0.925
C 21.4765 1.2778 -1.2995
C 20.8087 0.3151 1.2481
C 20.131800000000002 1.0405 -0.9679
C 19.7776 0.5532 0.3099
H 21.699 1.6292 -2.2325
H 20.5687 -0.0373 2.1765
H 19.4096 1.2292 -1.6678
C 25.803800000000003 -1.0292 -0.4521
O 23.502000000000002 -0.455 0.0669
C 24.3198 -1.3728 -0.671
H 26.0532 -1.1021 0.6082
H 26.433 -1.7241 -1.0112
H 26.008200000000002 -0.0134 -0.7957
H 24.0864 -1.3023 -1.7362
H 24.131500000000003 -2.3935 -0.3291
C 28.110300000000002 -1.765 1.6205
C 29.3052 -0.9944 2.0677
C 31.829 -0.5753 1.7363
O 32.9775 -1.0065 0.9941
C 30.5946 -1.3982 1.301
O 27.733 -2.6465 2.4316
H 29.4845 -1.1731 3.1334
H 29.111600000000003 0.0754 1.9702
H 32.0119 -0.7204 2.8042
H 31.650100000000002 0.4858 1.5435
H 30.8001 -2.4573 1.482
H 30.4546 -1.265 0.2261
H 27.433 -1.5876 0.4342
