79
F4_F6_F5_F11_F35
C -3.7933 -1.2591 -1.4908
C -4.067 -1.6036 -0.1702
C -4.8287 -1.1545 -2.432
C -5.3858 -1.8537 0.2475
C -6.1533 -1.4039 -2.0202
C -6.463 -1.758 -0.6763
N -2.49 -1.0563 -1.7161
S -2.6492 -1.6749 0.8157
C -1.7428 -1.2327 -0.6117
H -4.6252 -0.9013 -3.4015
H -5.5529 -2.1045 1.2244
H -6.8956 -1.3233 -2.7188
H -7.7509 -1.998 -0.2865
C 1.4884000000000002 -2.5141 -0.7382
C 1.4129 -2.9815 0.735
N 0.2369000000000001 -2.4707 1.4256
C 0.2956000000000001 -1.5278 2.4314
O -0.7427999999999999 -1.2281 3.0748
C 1.5133 -0.781 2.8637
H 2.4161 -2.8669 -1.1929
H 0.6497000000000002 -2.9129 -1.3116
H 1.4656 -1.4245 -0.792
H 2.3440000000000003 -2.6878 1.2157
H 1.4246 -4.0742 0.7577
H 2.2636000000000003 -1.5006 3.1989
H 1.2912000000000001 -0.1571 3.7356
C 6.508500000000001 1.0354 -0.3588
C 6.1719 0.551 0.925
C 5.4830000000000005 1.2778 -1.2995
C 4.8152 0.3151 1.2481
C 4.1383 1.0405 -0.9679
C 3.7841000000000005 0.5532 0.3099
H 5.705500000000001 1.6292 -2.2325
H 4.575200000000001 -0.0373 2.1765
H 3.4161 1.2292 -1.6678
O 7.508500000000001 -1.4963 -0.5423
C 8.9285 -1.5749 -0.7185
C 9.25 -1.7276 -2.2225
C 10.765699999999999 -1.8202 -2.5058
H 9.3161 -2.4386 -0.1724
H 9.394 -0.663 -0.3361
H 8.8417 -0.8701 -2.764
H 8.764500000000002 -2.6308 -2.6017
H 11.196100000000001 -2.6859 -1.9984
H 11.273600000000002 -0.9171 -2.1614
H 10.9343 -1.9265 -3.579
C 19.4409 -5.879 -2.4937
O 12.273600000000002 3.6951 1.572
C 13.586200000000002 3.2206 1.9053
C 14.243700000000002 2.4552 0.7286
C 15.649800000000003 1.9037 1.0854
C 16.308 1.1364 -0.093
C 17.7121 0.5796 0.267
C 18.346000000000004 -0.1361 -0.8623
N 17.787200000000002 -1.2841 -1.3163
C 18.2639 -2.0979 -2.3917
C 18.610100000000003 -3.5166 -1.8761
C 19.0958 -4.4629 -3.0064
O 19.394600000000004 0.3317 -1.3674
H 18.563100000000002 -6.3455 -2.0422
H 20.2401 -5.8314 -1.7513
H 19.776000000000003 -6.5011 -3.3259
H 13.550400000000002 2.61 2.8094
H 14.193500000000002 4.1001 2.1288
H 14.327500000000002 3.1357 -0.1232
H 13.601500000000001 1.6247 0.4294
H 15.559600000000001 1.2293 1.9418
H 16.296200000000002 2.7375 1.3741
H 16.4017 1.8115 -0.949
H 15.654300000000003 0.3082 -0.3822
H 17.6297 -0.1101 1.1112
H 18.350500000000004 1.411 0.5809
H 16.9818 -1.5868 -0.8673
H 19.1414 -1.6647 -2.8797
H 17.465500000000002 -2.1641 -3.1341
H 17.722900000000003 -3.9496 -1.4045
H 19.393500000000003 -3.4339 -1.1171
H 18.3157 -4.5494 -3.7677
H 19.9859 -4.038 -3.4785
