34
#######
C 8.1985 -5.879 -2.4937
O 1.0312 3.6951 1.572
C 2.3438 3.2206 1.9053
C 3.0013 2.4552 0.7286
C 4.4074 1.9037 1.0854
C 5.0656 1.1364 -0.093
C 6.4697 0.5796 0.267
C 7.1036 -0.1361 -0.8623
N 6.5448 -1.2841 -1.3163
C 7.0215 -2.0979 -2.3917
C 7.3677 -3.5166 -1.8761
C 7.8534 -4.4629 -3.0064
O 8.1522 0.3317 -1.3674
H 7.3207 -6.3455 -2.0422
H 8.9977 -5.8314 -1.7513
H 8.5336 -6.5011 -3.3259
H 2.308 2.61 2.8094
H 2.9511 4.1001 2.1288
H 3.0851 3.1357 -0.1232
H 2.3591 1.6247 0.4294
H 4.3172 1.2293 1.9418
H 5.0538 2.7375 1.3741
H 5.1593 1.8115 -0.949
H 4.4119 0.3082 -0.3822
H 6.3873 -0.1101 1.1112
H 7.1081 1.411 0.5809
H 5.7394 -1.5868 -0.8673
H 7.899 -1.6647 -2.8797
H 6.2231 -2.1641 -3.1341
H 6.4805 -3.9496 -1.4045
H 8.1511 -3.4339 -1.1171
H 7.0733 -4.5494 -3.7677
H 8.7435 -4.038 -3.4785
H -0.1578 3.0529 1.3707