99
F31_F4_F6_F5_F11_F35
C -11.2134 -3.9054 -3.5512
C -10.4658 -3.2053 -2.3943
C -10.6852 -1.6677 -2.3812
N -8.5472 -1.0395 -1.323
C -6.2864 -0.7018 -0.6766
C -5.2694 -0.2172 0.171
C -7.6611 -0.536 -0.4306
O -8.0664 0.0645 0.5945
C -9.969 -0.9485 -1.2106
H -12.2889 -3.7374 -3.4673
H -11.0256 -4.9802 -3.515
H -10.8677 -3.5242 -4.5142
H -9.399 -3.4229 -2.4915
H -10.8139 -3.6294 -1.4486
H -11.757 -1.4654 -2.2994
H -10.3366 -1.2411 -3.3261
H -8.1883 -1.4921 -2.103
H -6.0236 -1.1969 -1.5309
H -5.5666 0.3148 0.9949
H -10.2959 -1.3839 -0.2622
H -10.257 0.1063 -1.2208
C -1.1671 -1.2591 -1.4908
C -1.4408000000000003 -1.6036 -0.1702
C -2.2025000000000006 -1.1545 -2.432
C -2.7596 -1.8537 0.2475
C -3.5271 -1.4039 -2.0202
C -3.8368 -1.758 -0.6763
N 0.13619999999999965 -1.0563 -1.7161
S -0.02300000000000013 -1.6749 0.8157
C 0.8834 -1.2327 -0.6117
H -1.9990000000000006 -0.9013 -3.4015
H -2.9267000000000003 -2.1045 1.2244
H -4.2694 -1.3233 -2.7188
C 4.1146 -2.5141 -0.7382
C 4.0390999999999995 -2.9815 0.735
N 2.8631 -2.4707 1.4256
C 2.9218 -1.5278 2.4314
O 1.8834 -1.2281 3.0748
C 4.1395 -0.781 2.8637
H 5.0423 -2.8669 -1.1929
H 3.2759 -2.9129 -1.3116
H 4.0918 -1.4245 -0.792
H 4.9702 -2.6878 1.2157
H 4.0508 -4.0742 0.7577
H 4.8898 -1.5006 3.1989
H 3.9173999999999998 -0.1571 3.7356
C 9.1347 1.0354 -0.3588
C 8.7981 0.551 0.925
C 8.109200000000001 1.2778 -1.2995
C 7.4414 0.3151 1.2481
C 6.7645 1.0405 -0.9679
C 6.4103 0.5532 0.3099
H 8.331700000000001 1.6292 -2.2325
H 7.2014000000000005 -0.0373 2.1765
H 6.0423 1.2292 -1.6678
O 10.1347 -1.4963 -0.5423
C 11.5547 -1.5749 -0.7185
C 11.8762 -1.7276 -2.2225
C 13.3919 -1.8202 -2.5058
H 11.9423 -2.4386 -0.1724
H 12.020199999999999 -0.663 -0.3361
H 11.4679 -0.8701 -2.764
H 11.3907 -2.6308 -2.6017
H 13.8223 -2.6859 -1.9984
H 13.8998 -0.9171 -2.1614
H 13.560500000000001 -1.9265 -3.579
C 22.0671 -5.879 -2.4937
O 14.8998 3.6951 1.572
C 16.212400000000002 3.2206 1.9053
C 16.8699 2.4552 0.7286
C 18.276 1.9037 1.0854
C 18.9342 1.1364 -0.093
C 20.3383 0.5796 0.267
C 20.9722 -0.1361 -0.8623
N 20.413400000000003 -1.2841 -1.3163
C 20.8901 -2.0979 -2.3917
C 21.2363 -3.5166 -1.8761
C 21.722 -4.4629 -3.0064
O 22.0208 0.3317 -1.3674
H 21.189300000000003 -6.3455 -2.0422
H 22.866300000000003 -5.8314 -1.7513
H 22.4022 -6.5011 -3.3259
H 16.1766 2.61 2.8094
H 16.8197 4.1001 2.1288
H 16.9537 3.1357 -0.1232
H 16.227700000000002 1.6247 0.4294
H 18.1858 1.2293 1.9418
H 18.9224 2.7375 1.3741
H 19.027900000000002 1.8115 -0.949
H 18.2805 0.3082 -0.3822
H 20.2559 -0.1101 1.1112
H 20.9767 1.411 0.5809
H 19.608 -1.5868 -0.8673
H 21.7676 -1.6647 -2.8797
H 20.0917 -2.1641 -3.1341
H 20.3491 -3.9496 -1.4045
H 22.0197 -3.4339 -1.1171
H 20.9419 -4.5494 -3.7677
H 22.612099999999998 -4.038 -3.4785
