43
F4_F6_F55
C -3.7933 -1.2591 -1.4908
C -4.067 -1.6036 -0.1702
C -4.8287 -1.1545 -2.432
C -5.3858 -1.8537 0.2475
C -6.1533 -1.4039 -2.0202
C -6.463 -1.758 -0.6763
N -2.49 -1.0563 -1.7161
S -2.6492 -1.6749 0.8157
C -1.7428 -1.2327 -0.6117
H -4.6252 -0.9013 -3.4015
H -5.5529 -2.1045 1.2244
H -6.8956 -1.3233 -2.7188
H -7.7509 -1.998 -0.2865
C 1.4884000000000002 -2.5141 -0.7382
C 1.4129 -2.9815 0.735
N 0.2369000000000001 -2.4707 1.4256
C 0.2956000000000001 -1.5278 2.4314
O -0.7427999999999999 -1.2281 3.0748
C 1.5133 -0.781 2.8637
H 2.4161 -2.8669 -1.1929
H 0.6497000000000002 -2.9129 -1.3116
H 1.4656 -1.4245 -0.792
H 2.3440000000000003 -2.6878 1.2157
H 1.4246 -4.0742 0.7577
H 2.2636000000000003 -1.5006 3.1989
H 1.2912000000000001 -0.1571 3.7356
C 6.4713 0.7347 -0.8172
C 5.4646 1.5144 -0.2177
C 6.1477 -0.5071 -1.3916
C 4.1359 1.0511 -0.1928
C 4.8189 -0.9698 -1.3652
C 3.7946000000000004 -0.1989 -0.7636
O 5.785200000000001 2.7139 0.3337
O 7.751200000000001 1.1896 -0.8366
C 8.211 2.4354 -0.2877
C 7.0967 3.2997 0.3747
H 6.8771 -1.0753 -1.8284
H 3.4161 1.633 0.2429
H 4.6059 -1.8769 -1.7874
H 8.680399999999999 2.9994 -1.0966
H 8.984000000000002 2.2062 0.449
H 7.3457 3.4787 1.4228
H 7.0404 4.2701 -0.1233
