70
F17_F4_F6_F5_F9_F35
Br -6.7767 0.0257 -3.1439
C -2.6744 -1.2591 -1.4908
C -2.9481 -1.6036 -0.1702
C -3.7098000000000004 -1.1545 -2.432
C -4.2669 -1.8537 0.2475
C -5.0344 -1.4039 -2.0202
C -5.3441 -1.758 -0.6763
N -1.3711000000000002 -1.0563 -1.7161
S -1.5303 -1.6749 0.8157
C -0.6238999999999999 -1.2327 -0.6117
H -3.5063000000000004 -0.9013 -3.4015
H -4.434 -2.1045 1.2244
H -5.7767 -1.3233 -2.7188
C 2.6073000000000004 -2.5141 -0.7382
C 2.5318 -2.9815 0.735
N 1.3558000000000001 -2.4707 1.4256
C 1.4145 -1.5278 2.4314
O 0.3761000000000001 -1.2281 3.0748
C 2.6322 -0.781 2.8637
H 3.535 -2.8669 -1.1929
H 1.7686000000000002 -2.9129 -1.3116
H 2.5845000000000002 -1.4245 -0.792
H 3.4629000000000003 -2.6878 1.2157
H 2.5435 -4.0742 0.7577
H 3.3825000000000003 -1.5006 3.1989
H 2.4101 -0.1571 3.7356
C 7.627400000000001 1.0354 -0.3588
C 7.2908 0.551 0.925
C 6.6019000000000005 1.2778 -1.2995
C 5.9341 0.3151 1.2481
C 5.2572 1.0405 -0.9679
C 4.9030000000000005 0.5532 0.3099
H 6.824400000000001 1.6292 -2.2325
H 5.694100000000001 -0.0373 2.1765
H 4.535 1.2292 -1.6678
O 8.627400000000002 -2.9391 2.0505
H 9.8556 -3.1549 1.947
C 18.0229 -5.879 -2.4937
O 10.8556 3.6951 1.572
C 12.1682 3.2206 1.9053
C 12.825700000000001 2.4552 0.7286
C 14.2318 1.9037 1.0854
C 14.89 1.1364 -0.093
C 16.2941 0.5796 0.267
C 16.928 -0.1361 -0.8623
N 16.3692 -1.2841 -1.3163
C 16.8459 -2.0979 -2.3917
C 17.1921 -3.5166 -1.8761
C 17.6778 -4.4629 -3.0064
O 17.9766 0.3317 -1.3674
H 17.1451 -6.3455 -2.0422
H 18.8221 -5.8314 -1.7513
H 18.358 -6.5011 -3.3259
H 12.1324 2.61 2.8094
H 12.775500000000001 4.1001 2.1288
H 12.909500000000001 3.1357 -0.1232
H 12.1835 1.6247 0.4294
H 14.1416 1.2293 1.9418
H 14.8782 2.7375 1.3741
H 14.9837 1.8115 -0.949
H 14.2363 0.3082 -0.3822
H 16.2117 -0.1101 1.1112
H 16.9325 1.411 0.5809
H 15.5638 -1.5868 -0.8673
H 17.7234 -1.6647 -2.8797
H 16.0475 -2.1641 -3.1341
H 16.3049 -3.9496 -1.4045
H 17.9755 -3.4339 -1.1171
H 16.8977 -4.5494 -3.7677
H 18.5679 -4.038 -3.4785
