57
F17_F4_F6_F5_F18_F27
Br -6.7767 0.0257 -3.1439
C -2.6744 -1.2591 -1.4908
C -2.9481 -1.6036 -0.1702
C -3.7098000000000004 -1.1545 -2.432
C -4.2669 -1.8537 0.2475
C -5.0344 -1.4039 -2.0202
C -5.3441 -1.758 -0.6763
N -1.3711000000000002 -1.0563 -1.7161
S -1.5303 -1.6749 0.8157
C -0.6238999999999999 -1.2327 -0.6117
H -3.5063000000000004 -0.9013 -3.4015
H -4.434 -2.1045 1.2244
H -5.7767 -1.3233 -2.7188
C 2.6073000000000004 -2.5141 -0.7382
C 2.5318 -2.9815 0.735
N 1.3558000000000001 -2.4707 1.4256
C 1.4145 -1.5278 2.4314
O 0.3761000000000001 -1.2281 3.0748
C 2.6322 -0.781 2.8637
H 3.535 -2.8669 -1.1929
H 1.7686000000000002 -2.9129 -1.3116
H 2.5845000000000002 -1.4245 -0.792
H 3.4629000000000003 -2.6878 1.2157
H 2.5435 -4.0742 0.7577
H 3.3825000000000003 -1.5006 3.1989
H 2.4101 -0.1571 3.7356
C 7.627400000000001 1.0354 -0.3588
C 7.2908 0.551 0.925
C 6.6019000000000005 1.2778 -1.2995
C 5.9341 0.3151 1.2481
C 5.2572 1.0405 -0.9679
C 4.9030000000000005 0.5532 0.3099
H 6.824400000000001 1.6292 -2.2325
H 5.694100000000001 -0.0373 2.1765
H 4.535 1.2292 -1.6678
C 12.3137 -1.1295 1.1065
N 9.9776 -1.8312 0.9458
C 10.8751 -0.8816 1.3083
O 10.5439 0.2158 1.8158
O 12.8376 -0.1494 0.2012
H 12.483 -2.1279 0.6941
H 12.8256 -1.0585 2.0692
H 10.3519 -2.6415 0.5647
H 8.6274 -1.8029 1.0424
C 14.514899999999999 -1.765 1.6205
C 15.7098 -0.9944 2.0677
C 18.2336 -0.5753 1.7363
O 19.3821 -1.0065 0.9941
C 16.9992 -1.3982 1.301
O 14.137599999999999 -2.6465 2.4316
H 15.8891 -1.1731 3.1334
H 15.5162 0.0754 1.9702
H 18.4165 -0.7204 2.8042
H 18.0547 0.4858 1.5435
H 17.2047 -2.4573 1.482
H 16.8592 -1.265 0.2261
H 13.8376 -1.5876 0.4342
