73
F17_F4_F6_F5_F2_F35
Br -6.7767 0.0257 -3.1439
C -2.6744 -1.2591 -1.4908
C -2.9481 -1.6036 -0.1702
C -3.7098000000000004 -1.1545 -2.432
C -4.2669 -1.8537 0.2475
C -5.0344 -1.4039 -2.0202
C -5.3441 -1.758 -0.6763
N -1.3711000000000002 -1.0563 -1.7161
S -1.5303 -1.6749 0.8157
C -0.6238999999999999 -1.2327 -0.6117
H -3.5063000000000004 -0.9013 -3.4015
H -4.434 -2.1045 1.2244
H -5.7767 -1.3233 -2.7188
C 2.6073000000000004 -2.5141 -0.7382
C 2.5318 -2.9815 0.735
N 1.3558000000000001 -2.4707 1.4256
C 1.4145 -1.5278 2.4314
O 0.3761000000000001 -1.2281 3.0748
C 2.6322 -0.781 2.8637
H 3.535 -2.8669 -1.1929
H 1.7686000000000002 -2.9129 -1.3116
H 2.5845000000000002 -1.4245 -0.792
H 3.4629000000000003 -2.6878 1.2157
H 2.5435 -4.0742 0.7577
H 3.3825000000000003 -1.5006 3.1989
H 2.4101 -0.1571 3.7356
C 7.627400000000001 1.0354 -0.3588
C 7.2908 0.551 0.925
C 6.6019000000000005 1.2778 -1.2995
C 5.9341 0.3151 1.2481
C 5.2572 1.0405 -0.9679
C 4.9030000000000005 0.5532 0.3099
H 6.824400000000001 1.6292 -2.2325
H 5.694100000000001 -0.0373 2.1765
H 4.535 1.2292 -1.6678
O 9.2699 0.3316 1.8022
C 9.215700000000002 -0.1508 3.1489
H 10.229800000000001 -0.2004 3.5454
H 8.627400000000002 0.5259 3.7707
H 8.777700000000001 -1.1498 3.1765
C 18.397100000000002 -5.879 -2.4937
O 11.229800000000001 3.6951 1.572
C 12.5424 3.2206 1.9053
C 13.199900000000001 2.4552 0.7286
C 14.606000000000002 1.9037 1.0854
C 15.2642 1.1364 -0.093
C 16.668300000000002 0.5796 0.267
C 17.3022 -0.1361 -0.8623
N 16.7434 -1.2841 -1.3163
C 17.220100000000002 -2.0979 -2.3917
C 17.566300000000002 -3.5166 -1.8761
C 18.052 -4.4629 -3.0064
O 18.3508 0.3317 -1.3674
H 17.5193 -6.3455 -2.0422
H 19.1963 -5.8314 -1.7513
H 18.7322 -6.5011 -3.3259
H 12.5066 2.61 2.8094
H 13.149700000000001 4.1001 2.1288
H 13.283700000000001 3.1357 -0.1232
H 12.5577 1.6247 0.4294
H 14.5158 1.2293 1.9418
H 15.252400000000002 2.7375 1.3741
H 15.3579 1.8115 -0.949
H 14.610500000000002 0.3082 -0.3822
H 16.585900000000002 -0.1101 1.1112
H 17.3067 1.411 0.5809
H 15.938 -1.5868 -0.8673
H 18.0976 -1.6647 -2.8797
H 16.4217 -2.1641 -3.1341
H 16.679100000000002 -3.9496 -1.4045
H 18.3497 -3.4339 -1.1171
H 17.271900000000002 -4.5494 -3.7677
H 18.9421 -4.038 -3.4785
