88
F16_F4_F1_F5_F9_F35
O -6.8018 -2.9513 -0.8438
C -5.795 -3.6977 -0.8163
N -4.5479 -3.2477 -0.5275
C -5.9855 -5.143 -1.0759
C -5.2415 -5.6557 -2.3399
C -5.7415 -5.0199 -3.6671
C -5.011 -5.5885 -4.9143
C -5.5164 -5.0005 -6.2548
N -5.2246 -3.5675 -6.3765
H -3.8699 -3.938 -0.4501
H -7.0505 -5.3719 -1.1805
H -5.6233 -5.6962 -0.2054
H -4.1692 -5.4708 -2.2295
H -5.383 -6.7388 -2.3953
H -5.5841 -3.9393 -3.6257
H -6.8147 -5.2047 -3.7675
H -5.1546 -6.6722 -4.9448
H -3.938 -5.3958 -4.8273
H -6.593 -5.1549 -6.3535
H -5.0207 -5.5153 -7.0804
H -5.5804 -3.2676 -7.2868
H -5.7826 -3.0847 -5.6694
C 0.2324000000000006 -1.2591 -1.4908
C -0.04129999999999967 -1.6036 -0.1702
C -0.8029999999999999 -1.1545 -2.432
C -1.3600999999999992 -1.8537 0.2475
C -2.1275999999999993 -1.4039 -2.0202
C -2.4372999999999996 -1.758 -0.6763
N 1.5357000000000003 -1.0563 -1.7161
S 1.3765000000000005 -1.6749 0.8157
C 2.2829000000000006 -1.2327 -0.6117
H -0.5994999999999999 -0.9013 -3.4015
H -1.5271999999999997 -2.1045 1.2244
H -2.8698999999999995 -1.3233 -2.7188
N 3.2829000000000006 -1.0549 -0.7103
C 4.2305 -1.1772 0.2523
O 3.9617000000000004 -1.4996 1.4339
C 5.649500000000001 -0.9304 -0.0912
C 6.232600000000001 0.3041 0.6508
H 3.6064000000000007 -0.8048 -1.5905
H 5.748100000000001 -0.7816 -1.1703
H 6.2278 -1.8209 0.1705
H 5.649800000000001 1.1946 0.3974
H 6.122300000000001 0.1491 1.7283
C 10.325000000000001 1.0354 -0.3588
C 9.9884 0.551 0.925
C 9.299500000000002 1.2778 -1.2995
C 8.6317 0.3151 1.2481
C 7.9548000000000005 1.0405 -0.9679
C 7.600600000000001 0.5532 0.3099
H 9.522000000000002 1.6292 -2.2325
H 8.3917 -0.0373 2.1765
H 7.232600000000001 1.2292 -1.6678
O 11.325000000000003 -2.9391 2.0505
H 12.553200000000002 -3.1549 1.947
C 20.7205 -5.879 -2.4937
O 13.553200000000002 3.6951 1.572
C 14.865800000000002 3.2206 1.9053
C 15.523300000000003 2.4552 0.7286
C 16.9294 1.9037 1.0854
C 17.587600000000002 1.1364 -0.093
C 18.9917 0.5796 0.267
C 19.625600000000002 -0.1361 -0.8623
N 19.0668 -1.2841 -1.3163
C 19.5435 -2.0979 -2.3917
C 19.8897 -3.5166 -1.8761
C 20.375400000000003 -4.4629 -3.0064
O 20.674200000000003 0.3317 -1.3674
H 19.8427 -6.3455 -2.0422
H 21.5197 -5.8314 -1.7513
H 21.055600000000002 -6.5011 -3.3259
H 14.830000000000002 2.61 2.8094
H 15.473100000000002 4.1001 2.1288
H 15.607100000000003 3.1357 -0.1232
H 14.881100000000002 1.6247 0.4294
H 16.8392 1.2293 1.9418
H 17.5758 2.7375 1.3741
H 17.6813 1.8115 -0.949
H 16.9339 0.3082 -0.3822
H 18.9093 -0.1101 1.1112
H 19.630100000000002 1.411 0.5809
H 18.261400000000002 -1.5868 -0.8673
H 20.421000000000003 -1.6647 -2.8797
H 18.7451 -2.1641 -3.1341
H 19.0025 -3.9496 -1.4045
H 20.6731 -3.4339 -1.1171
H 19.5953 -4.5494 -3.7677
H 21.265500000000003 -4.038 -3.4785
