92
F42_F4_F6_F5_F18_F35
C -7.846 -0.4564 -1.3096
C -8.4274 -1.4295 -0.2461
C -7.5076 -2.6425 0.0665
C -8.1424 -3.6273 1.0842
C -7.2278 -4.8317 1.4014
H -8.5889 0.3172 -1.5224
H -7.7042 -1.0134 -2.2404
H -8.6319 -0.8815 0.6777
H -9.3839 -1.8037 -0.6223
H -6.5599 -2.2795 0.4733
H -7.2965 -3.1781 -0.8634
H -8.3557 -3.0979 2.0169
H -9.0873 -4.0048 0.6838
H -7.7208 -5.4903 2.119
H -7.0184 -5.4009 0.4936
H -6.2846 -4.4909 1.8332
C -2.1823 -1.2591 -1.4908
C -2.4560000000000004 -1.6036 -0.1702
C -3.2177000000000007 -1.1545 -2.432
C -3.7748 -1.8537 0.2475
C -4.5423 -1.4039 -2.0202
C -4.852 -1.758 -0.6763
N -0.8790000000000004 -1.0563 -1.7161
S -1.0382000000000002 -1.6749 0.8157
C -0.13180000000000014 -1.2327 -0.6117
H -3.0142000000000007 -0.9013 -3.4015
H -3.9419000000000004 -2.1045 1.2244
H -5.2846 -1.3233 -2.7188
C 3.0994 -2.5141 -0.7382
C 3.0239 -2.9815 0.735
N 1.8478999999999999 -2.4707 1.4256
C 1.9065999999999999 -1.5278 2.4314
O 0.8681999999999999 -1.2281 3.0748
C 3.1243 -0.781 2.8637
H 4.0271 -2.8669 -1.1929
H 2.2607 -2.9129 -1.3116
H 3.0766 -1.4245 -0.792
H 3.955 -2.6878 1.2157
H 3.0355999999999996 -4.0742 0.7577
H 3.8746 -1.5006 3.1989
H 2.9021999999999997 -0.1571 3.7356
C 8.1195 1.0354 -0.3588
C 7.7829 0.551 0.925
C 7.094 1.2778 -1.2995
C 6.4262 0.3151 1.2481
C 5.7493 1.0405 -0.9679
C 5.3951 0.5532 0.3099
H 7.3165000000000004 1.6292 -2.2325
H 6.1862 -0.0373 2.1765
H 5.0271 1.2292 -1.6678
C 12.805800000000001 -1.1295 1.1065
N 10.469700000000001 -1.8312 0.9458
C 11.3672 -0.8816 1.3083
O 11.036000000000001 0.2158 1.8158
O 13.3297 -0.1494 0.2012
H 12.975100000000001 -2.1279 0.6941
H 13.3177 -1.0585 2.0692
H 10.844000000000001 -2.6415 0.5647
H 9.1195 -1.8029 1.0424
C 21.497 -5.879 -2.4937
O 14.3297 3.6951 1.572
C 15.6423 3.2206 1.9053
C 16.2998 2.4552 0.7286
C 17.7059 1.9037 1.0854
C 18.3641 1.1364 -0.093
C 19.7682 0.5796 0.267
C 20.4021 -0.1361 -0.8623
N 19.8433 -1.2841 -1.3163
C 20.32 -2.0979 -2.3917
C 20.6662 -3.5166 -1.8761
C 21.1519 -4.4629 -3.0064
O 21.4507 0.3317 -1.3674
H 20.6192 -6.3455 -2.0422
H 22.2962 -5.8314 -1.7513
H 21.8321 -6.5011 -3.3259
H 15.6065 2.61 2.8094
H 16.2496 4.1001 2.1288
H 16.3836 3.1357 -0.1232
H 15.6576 1.6247 0.4294
H 17.6157 1.2293 1.9418
H 18.3523 2.7375 1.3741
H 18.4578 1.8115 -0.949
H 17.7104 0.3082 -0.3822
H 19.6858 -0.1101 1.1112
H 20.4066 1.411 0.5809
H 19.0379 -1.5868 -0.8673
H 21.1975 -1.6647 -2.8797
H 19.5216 -2.1641 -3.1341
H 19.779 -3.9496 -1.4045
H 21.4496 -3.4339 -1.1171
H 20.3718 -4.5494 -3.7677
H 22.042 -4.038 -3.4785
