64
F14_F4_F6_F5_F9_F2
C -11.3604 -1.6657 0.9424
C -10.6002 -0.4179 0.4402
C -10.5366 -0.3368 -1.1093
N -8.4469 1.0078 -1.2082
C -6.0558 0.4571 -1.1594
C -5.545 -0.8561 -0.505
C -7.4121 0.3064 -1.7301
O -7.5758 -0.4767 -2.6964
C -9.8082 0.9274 -1.6364
H -12.3908 -1.6555 0.5814
H -11.3746 -1.6746 2.0339
H -10.8701 -2.5766 0.5934
H -9.5859 -0.4457 0.8472
H -11.0986 0.4738 0.83
H -11.5556 -0.3312 -1.5061
H -10.0342 -1.2265 -1.4982
H -8.2545 1.5947 -0.4596
H -5.3809 0.7655 -1.9619
H -6.0552 1.2495 -0.4046
H -5.4967 -1.6516 -1.2543
H -6.2739 -1.1717 0.2481
H -10.3262 1.817 -1.2715
H -9.8591 0.9489 -2.7286
C -1.2785999999999995 -1.2591 -1.4908
C -1.5522999999999998 -1.6036 -0.1702
C -2.314 -1.1545 -2.432
C -2.8710999999999993 -1.8537 0.2475
C -3.6385999999999994 -1.4039 -2.0202
C -3.9482999999999997 -1.758 -0.6763
N 0.024700000000000166 -1.0563 -1.7161
S -0.13449999999999962 -1.6749 0.8157
C 0.7719000000000005 -1.2327 -0.6117
H -2.1105 -0.9013 -3.4015
H -3.0382 -2.1045 1.2244
H -4.3809 -1.3233 -2.7188
C 4.003100000000001 -2.5141 -0.7382
C 3.9276000000000004 -2.9815 0.735
N 2.7516000000000007 -2.4707 1.4256
C 2.8103000000000007 -1.5278 2.4314
O 1.7719000000000005 -1.2281 3.0748
C 4.0280000000000005 -0.781 2.8637
H 4.9308000000000005 -2.8669 -1.1929
H 3.1644000000000005 -2.9129 -1.3116
H 3.9803000000000006 -1.4245 -0.792
H 4.858700000000001 -2.6878 1.2157
H 3.9393000000000002 -4.0742 0.7577
H 4.778300000000001 -1.5006 3.1989
H 3.8059000000000003 -0.1571 3.7356
C 9.023200000000001 1.0354 -0.3588
C 8.6866 0.551 0.925
C 7.997700000000001 1.2778 -1.2995
C 7.3299 0.3151 1.2481
C 6.6530000000000005 1.0405 -0.9679
C 6.298800000000001 0.5532 0.3099
H 8.220200000000002 1.6292 -2.2325
H 7.089900000000001 -0.0373 2.1765
H 5.9308000000000005 1.2292 -1.6678
O 10.023200000000003 -2.9391 2.0505
H 11.251400000000002 -3.1549 1.947
O 12.893900000000002 0.3316 1.8022
C 12.839700000000002 -0.1508 3.1489
H 13.853800000000003 -0.2004 3.5454
H 12.251400000000002 0.5259 3.7707
H 12.401700000000002 -1.1498 3.1765
