83
F33_F4_F1_F5_F35_F9
C -10.6688 -2.6804 -1.9188
C -8.3967 -2.3202 -0.7526
N -6.2531 -2.0117 0.3803
C -5.3108 -1.0339 0.4305
C -7.6683 -1.8572 0.5334
C -9.9409 -2.2182 -0.6366
O -5.6731 0.1488 0.646
H -11.7482 -2.5882 -1.7838
H -10.3708 -2.0642 -2.7695
H -10.4333 -3.7242 -2.1357
H -8.1221 -3.3583 -0.9625
H -8.059 -1.7025 -1.59
H -5.9431 -2.9168 0.2277
H -7.979 -2.4823 1.3734
H -7.9528 -0.8261 0.7595
H -10.2223 -1.1815 -0.4321
H -10.2837 -2.8346 0.199
C -1.2085000000000004 -1.2591 -1.4908
C -1.4822000000000006 -1.6036 -0.1702
C -2.243900000000001 -1.1545 -2.432
C -2.801 -1.8537 0.2475
C -3.5685000000000002 -1.4039 -2.0202
C -3.8782000000000005 -1.758 -0.6763
N 0.09479999999999933 -1.0563 -1.7161
S -0.06440000000000046 -1.6749 0.8157
C 0.8419999999999996 -1.2327 -0.6117
H -2.040400000000001 -0.9013 -3.4015
H -2.9681000000000006 -2.1045 1.2244
H -4.3108 -1.3233 -2.7188
N 1.8419999999999996 -1.0549 -0.7103
C 2.7895999999999996 -1.1772 0.2523
O 2.5207999999999995 -1.4996 1.4339
C 4.2086 -0.9304 -0.0912
C 4.7917 0.3041 0.6508
H 2.1654999999999998 -0.8048 -1.5905
H 4.3072 -0.7816 -1.1703
H 4.786899999999999 -1.8209 0.1705
H 4.2089 1.1946 0.3974
H 4.6814 0.1491 1.7283
C 8.8841 1.0354 -0.3588
C 8.5475 0.551 0.925
C 7.8586 1.2778 -1.2995
C 7.190799999999999 0.3151 1.2481
C 6.5139 1.0405 -0.9679
C 6.1597 0.5532 0.3099
H 8.0811 1.6292 -2.2325
H 6.9508 -0.0373 2.1765
H 5.7917 1.2292 -1.6678
C 17.0514 -5.879 -2.4937
O 9.8841 3.6951 1.572
C 11.1967 3.2206 1.9053
C 11.8542 2.4552 0.7286
C 13.2603 1.9037 1.0854
C 13.9185 1.1364 -0.093
C 15.3226 0.5796 0.267
C 15.9565 -0.1361 -0.8623
N 15.3977 -1.2841 -1.3163
C 15.8744 -2.0979 -2.3917
C 16.2206 -3.5166 -1.8761
C 16.7063 -4.4629 -3.0064
O 17.0051 0.3317 -1.3674
H 16.1736 -6.3455 -2.0422
H 17.8506 -5.8314 -1.7513
H 17.386499999999998 -6.5011 -3.3259
H 11.1609 2.61 2.8094
H 11.804 4.1001 2.1288
H 11.938 3.1357 -0.1232
H 11.212 1.6247 0.4294
H 13.1701 1.2293 1.9418
H 13.9067 2.7375 1.3741
H 14.0122 1.8115 -0.949
H 13.264800000000001 0.3082 -0.3822
H 15.2402 -0.1101 1.1112
H 15.961 1.411 0.5809
H 14.5923 -1.5868 -0.8673
H 16.7519 -1.6647 -2.8797
H 15.076 -2.1641 -3.1341
H 15.333400000000001 -3.9496 -1.4045
H 17.003999999999998 -3.4339 -1.1171
H 15.9262 -4.5494 -3.7677
H 17.5964 -4.038 -3.4785
O 18.8506 -2.9391 2.0505
H 20.0788 -3.1549 1.947
