74
F13_F4_F6_F5_F40_F35
Cl -6.6508 -0.6791 2.1642
C -2.5485 -1.2591 -1.4908
C -2.8222000000000005 -1.6036 -0.1702
C -3.5839000000000008 -1.1545 -2.432
C -4.141 -1.8537 0.2475
C -4.9085 -1.4039 -2.0202
C -5.2182 -1.758 -0.6763
N -1.2452000000000005 -1.0563 -1.7161
S -1.4044000000000003 -1.6749 0.8157
C -0.4980000000000002 -1.2327 -0.6117
H -3.3804000000000007 -0.9013 -3.4015
H -4.3081000000000005 -2.1045 1.2244
H -5.6508 -1.3233 -2.7188
C 2.7332 -2.5141 -0.7382
C 2.6576999999999997 -2.9815 0.735
N 1.4816999999999998 -2.4707 1.4256
C 1.5403999999999998 -1.5278 2.4314
O 0.5019999999999998 -1.2281 3.0748
C 2.7580999999999998 -0.781 2.8637
H 3.6609 -2.8669 -1.1929
H 1.8944999999999999 -2.9129 -1.3116
H 2.7104 -1.4245 -0.792
H 3.5888 -2.6878 1.2157
H 2.6693999999999996 -4.0742 0.7577
H 3.5084 -1.5006 3.1989
H 2.5359999999999996 -0.1571 3.7356
C 7.7533 1.0354 -0.3588
C 7.4167 0.551 0.925
C 6.7278 1.2778 -1.2995
C 6.06 0.3151 1.2481
C 5.3831 1.0405 -0.9679
C 5.0289 0.5532 0.3099
H 6.9503 1.6292 -2.2325
H 5.82 -0.0373 2.1765
H 4.6609 1.2292 -1.6678
N 9.4581 -0.6826 -2.4804
C 10.708 -0.7737 -3.155
H 8.7533 -1.2486 -2.8342
H 10.6143 -1.4935 -3.9684
H 10.9864 0.1918 -3.5804
H 11.487 -1.1225 -2.4751
C 19.6543 -5.879 -2.4937
O 12.487 3.6951 1.572
C 13.7996 3.2206 1.9053
C 14.4571 2.4552 0.7286
C 15.863199999999999 1.9037 1.0854
C 16.5214 1.1364 -0.093
C 17.9255 0.5796 0.267
C 18.5594 -0.1361 -0.8623
N 18.0006 -1.2841 -1.3163
C 18.4773 -2.0979 -2.3917
C 18.8235 -3.5166 -1.8761
C 19.3092 -4.4629 -3.0064
O 19.608 0.3317 -1.3674
H 18.7765 -6.3455 -2.0422
H 20.4535 -5.8314 -1.7513
H 19.9894 -6.5011 -3.3259
H 13.7638 2.61 2.8094
H 14.4069 4.1001 2.1288
H 14.5409 3.1357 -0.1232
H 13.8149 1.6247 0.4294
H 15.773 1.2293 1.9418
H 16.5096 2.7375 1.3741
H 16.615099999999998 1.8115 -0.949
H 15.8677 0.3082 -0.3822
H 17.8431 -0.1101 1.1112
H 18.5639 1.411 0.5809
H 17.1952 -1.5868 -0.8673
H 19.3548 -1.6647 -2.8797
H 17.6789 -2.1641 -3.1341
H 17.9363 -3.9496 -1.4045
H 19.6069 -3.4339 -1.1171
H 18.5291 -4.5494 -3.7677
H 20.1993 -4.038 -3.4785
