75
F3_F4_F6_F5_F51_F35
O -8.6842 -1.9254 -1.0429
N -7.7509 -1.998 -0.2865
O -8.0442 -2.2992 0.8413
C -3.6485999999999996 -1.2591 -1.4908
C -3.9223 -1.6036 -0.1702
C -4.684 -1.1545 -2.432
C -5.241099999999999 -1.8537 0.2475
C -6.0085999999999995 -1.4039 -2.0202
C -6.3183 -1.758 -0.6763
N -2.3453 -1.0563 -1.7161
S -2.5044999999999997 -1.6749 0.8157
C -1.5980999999999996 -1.2327 -0.6117
H -4.4805 -0.9013 -3.4015
H -5.4082 -2.1045 1.2244
H -6.7509 -1.3233 -2.7188
C 1.6331000000000004 -2.5141 -0.7382
C 1.5576000000000003 -2.9815 0.735
N 0.3816000000000004 -2.4707 1.4256
C 0.44030000000000036 -1.5278 2.4314
O -0.5980999999999996 -1.2281 3.0748
C 1.6580000000000004 -0.781 2.8637
H 2.5608000000000004 -2.8669 -1.1929
H 0.7944000000000004 -2.9129 -1.3116
H 1.6103000000000003 -1.4245 -0.792
H 2.4887000000000006 -2.6878 1.2157
H 1.5693000000000004 -4.0742 0.7577
H 2.4083000000000006 -1.5006 3.1989
H 1.4359000000000004 -0.1571 3.7356
C 6.653200000000001 1.0354 -0.3588
C 6.3166 0.551 0.925
C 5.627700000000001 1.2778 -1.2995
C 4.9599 0.3151 1.2481
C 4.283 1.0405 -0.9679
C 3.9288000000000007 0.5532 0.3099
H 5.850200000000001 1.6292 -2.2325
H 4.719900000000001 -0.0373 2.1765
H 3.5608000000000004 1.2292 -1.6678
F 7.6532 -1.2311 0.0678
F 8.4856 0.8016 -0.2701
F 8.6709 -0.1838 1.7431
C 8.6867 -0.3884 0.3852
O 9.910699999999999 -1.008 -0.0307
C 18.077999999999996 -5.879 -2.4937
O 10.910699999999999 3.6951 1.572
C 12.223299999999998 3.2206 1.9053
C 12.880799999999999 2.4552 0.7286
C 14.2869 1.9037 1.0854
C 14.945099999999998 1.1364 -0.093
C 16.349199999999996 0.5796 0.267
C 16.9831 -0.1361 -0.8623
N 16.4243 -1.2841 -1.3163
C 16.900999999999996 -2.0979 -2.3917
C 17.2472 -3.5166 -1.8761
C 17.732899999999997 -4.4629 -3.0064
O 18.0317 0.3317 -1.3674
H 17.2002 -6.3455 -2.0422
H 18.8772 -5.8314 -1.7513
H 18.4131 -6.5011 -3.3259
H 12.187499999999998 2.61 2.8094
H 12.830599999999999 4.1001 2.1288
H 12.964599999999999 3.1357 -0.1232
H 12.238599999999998 1.6247 0.4294
H 14.196699999999998 1.2293 1.9418
H 14.9333 2.7375 1.3741
H 15.038799999999998 1.8115 -0.949
H 14.2914 0.3082 -0.3822
H 16.266799999999996 -0.1101 1.1112
H 16.9876 1.411 0.5809
H 15.618899999999998 -1.5868 -0.8673
H 17.778499999999998 -1.6647 -2.8797
H 16.1026 -2.1641 -3.1341
H 16.36 -3.9496 -1.4045
H 18.0306 -3.4339 -1.1171
H 16.952799999999996 -4.5494 -3.7677
H 18.622999999999998 -4.038 -3.4785
