73
F17_F4_F6_F5_F51_F35
Br -6.7767 0.0257 -3.1439
C -2.6744 -1.2591 -1.4908
C -2.9481 -1.6036 -0.1702
C -3.7098000000000004 -1.1545 -2.432
C -4.2669 -1.8537 0.2475
C -5.0344 -1.4039 -2.0202
C -5.3441 -1.758 -0.6763
N -1.3711000000000002 -1.0563 -1.7161
S -1.5303 -1.6749 0.8157
C -0.6238999999999999 -1.2327 -0.6117
H -3.5063000000000004 -0.9013 -3.4015
H -4.434 -2.1045 1.2244
H -5.7767 -1.3233 -2.7188
C 2.6073000000000004 -2.5141 -0.7382
C 2.5318 -2.9815 0.735
N 1.3558000000000001 -2.4707 1.4256
C 1.4145 -1.5278 2.4314
O 0.3761000000000001 -1.2281 3.0748
C 2.6322 -0.781 2.8637
H 3.535 -2.8669 -1.1929
H 1.7686000000000002 -2.9129 -1.3116
H 2.5845000000000002 -1.4245 -0.792
H 3.4629000000000003 -2.6878 1.2157
H 2.5435 -4.0742 0.7577
H 3.3825000000000003 -1.5006 3.1989
H 2.4101 -0.1571 3.7356
C 7.627400000000001 1.0354 -0.3588
C 7.2908 0.551 0.925
C 6.6019000000000005 1.2778 -1.2995
C 5.9341 0.3151 1.2481
C 5.2572 1.0405 -0.9679
C 4.9030000000000005 0.5532 0.3099
H 6.824400000000001 1.6292 -2.2325
H 5.694100000000001 -0.0373 2.1765
H 4.535 1.2292 -1.6678
F 8.6274 -1.2311 0.0678
F 9.4598 0.8016 -0.2701
F 9.6451 -0.1838 1.7431
C 9.6609 -0.3884 0.3852
O 10.884899999999998 -1.008 -0.0307
C 19.0522 -5.879 -2.4937
O 11.884899999999998 3.6951 1.572
C 13.197499999999998 3.2206 1.9053
C 13.854999999999999 2.4552 0.7286
C 15.261099999999999 1.9037 1.0854
C 15.919299999999998 1.1364 -0.093
C 17.3234 0.5796 0.267
C 17.957299999999996 -0.1361 -0.8623
N 17.3985 -1.2841 -1.3163
C 17.8752 -2.0979 -2.3917
C 18.2214 -3.5166 -1.8761
C 18.707099999999997 -4.4629 -3.0064
O 19.005899999999997 0.3317 -1.3674
H 18.1744 -6.3455 -2.0422
H 19.851399999999998 -5.8314 -1.7513
H 19.387299999999996 -6.5011 -3.3259
H 13.161699999999998 2.61 2.8094
H 13.804799999999998 4.1001 2.1288
H 13.938799999999999 3.1357 -0.1232
H 13.212799999999998 1.6247 0.4294
H 15.170899999999998 1.2293 1.9418
H 15.907499999999999 2.7375 1.3741
H 16.012999999999998 1.8115 -0.949
H 15.2656 0.3082 -0.3822
H 17.241 -0.1101 1.1112
H 17.961799999999997 1.411 0.5809
H 16.5931 -1.5868 -0.8673
H 18.752699999999997 -1.6647 -2.8797
H 17.0768 -2.1641 -3.1341
H 17.3342 -3.9496 -1.4045
H 19.004799999999996 -3.4339 -1.1171
H 17.927 -4.5494 -3.7677
H 19.597199999999997 -4.038 -3.4785
