98
F31_F4_F1_F5_F27_F35
C -11.2134 -3.9054 -3.5512
C -10.4658 -3.2053 -2.3943
C -10.6852 -1.6677 -2.3812
N -8.5472 -1.0395 -1.323
C -6.2864 -0.7018 -0.6766
C -5.2694 -0.2172 0.171
C -7.6611 -0.536 -0.4306
O -8.0664 0.0645 0.5945
C -9.969 -0.9485 -1.2106
H -12.2889 -3.7374 -3.4673
H -11.0256 -4.9802 -3.515
H -10.8677 -3.5242 -4.5142
H -9.399 -3.4229 -2.4915
H -10.8139 -3.6294 -1.4486
H -11.757 -1.4654 -2.2994
H -10.3366 -1.2411 -3.3261
H -8.1883 -1.4921 -2.103
H -6.0236 -1.1969 -1.5309
H -5.5666 0.3148 0.9949
H -10.2959 -1.3839 -0.2622
H -10.257 0.1063 -1.2208
C -1.1671 -1.2591 -1.4908
C -1.4408000000000003 -1.6036 -0.1702
C -2.2025000000000006 -1.1545 -2.432
C -2.7596 -1.8537 0.2475
C -3.5271 -1.4039 -2.0202
C -3.8368 -1.758 -0.6763
N 0.13619999999999965 -1.0563 -1.7161
S -0.02300000000000013 -1.6749 0.8157
C 0.8834 -1.2327 -0.6117
H -1.9990000000000006 -0.9013 -3.4015
H -2.9267000000000003 -2.1045 1.2244
H -4.2694 -1.3233 -2.7188
N 1.8834 -1.0549 -0.7103
C 2.831 -1.1772 0.2523
O 2.5622 -1.4996 1.4339
C 4.25 -0.9304 -0.0912
C 4.8331 0.3041 0.6508
H 2.2069 -0.8048 -1.5905
H 4.348599999999999 -0.7816 -1.1703
H 4.8283000000000005 -1.8209 0.1705
H 4.250299999999999 1.1946 0.3974
H 4.722799999999999 0.1491 1.7283
C 8.9255 1.0354 -0.3588
C 8.588899999999999 0.551 0.925
C 7.9 1.2778 -1.2995
C 7.2322 0.3151 1.2481
C 6.5553 1.0405 -0.9679
C 6.2011 0.5532 0.3099
H 8.1225 1.6292 -2.2325
H 6.9922 -0.0373 2.1765
H 5.8331 1.2292 -1.6678
C 10.6028 -1.765 1.6205
C 11.7977 -0.9944 2.0677
C 14.3215 -0.5753 1.7363
O 15.47 -1.0065 0.9941
C 13.0871 -1.3982 1.301
O 10.2255 -2.6465 2.4316
H 11.977 -1.1731 3.1334
H 11.6041 0.0754 1.9702
H 14.5044 -0.7204 2.8042
H 14.142600000000002 0.4858 1.5435
H 13.2926 -2.4573 1.482
H 12.9471 -1.265 0.2261
H 9.925500000000001 -1.5876 0.4342
C 23.6373 -5.879 -2.4937
O 16.47 3.6951 1.572
C 17.782600000000002 3.2206 1.9053
C 18.4401 2.4552 0.7286
C 19.8462 1.9037 1.0854
C 20.5044 1.1364 -0.093
C 21.9085 0.5796 0.267
C 22.5424 -0.1361 -0.8623
N 21.983600000000003 -1.2841 -1.3163
C 22.4603 -2.0979 -2.3917
C 22.8065 -3.5166 -1.8761
C 23.2922 -4.4629 -3.0064
O 23.591 0.3317 -1.3674
H 22.759500000000003 -6.3455 -2.0422
H 24.436500000000002 -5.8314 -1.7513
H 23.9724 -6.5011 -3.3259
H 17.7468 2.61 2.8094
H 18.3899 4.1001 2.1288
H 18.5239 3.1357 -0.1232
H 17.797900000000002 1.6247 0.4294
H 19.756 1.2293 1.9418
H 20.4926 2.7375 1.3741
H 20.598100000000002 1.8115 -0.949
H 19.8507 0.3082 -0.3822
H 21.8261 -0.1101 1.1112
H 22.5469 1.411 0.5809
H 21.1782 -1.5868 -0.8673
H 23.3378 -1.6647 -2.8797
H 21.6619 -2.1641 -3.1341
H 21.9193 -3.9496 -1.4045
H 23.5899 -3.4339 -1.1171
H 22.5121 -4.5494 -3.7677
H 24.182299999999998 -4.038 -3.4785
