85
F38_F4_F6_F5_F18_F35
N 6.5369 0.3274 -1.1837
C 7.2435 1.5776 -1.0675
C 6.8774 -0.5644 -2.2627
H 8.3071 1.3899 -0.9071
H 6.881 2.1916 -0.2384
H 7.1249 2.1581 -1.9848
H 7.9364 -0.8251 -2.2088
H 6.6846 -0.0783 -3.2213
H 6.3057 -1.4963 -2.2368
C 12.4094 -1.2591 -1.4908
C 12.1357 -1.6036 -0.1702
C 11.373999999999999 -1.1545 -2.432
C 10.8169 -1.8537 0.2475
C 10.0494 -1.4039 -2.0202
C 9.7397 -1.758 -0.6763
N 13.7127 -1.0563 -1.7161
S 13.5535 -1.6749 0.8157
C 14.459900000000001 -1.2327 -0.6117
H 11.5775 -0.9013 -3.4015
H 10.649799999999999 -2.1045 1.2244
H 9.3071 -1.3233 -2.7188
C 17.691100000000002 -2.5141 -0.7382
C 17.6156 -2.9815 0.735
N 16.439600000000002 -2.4707 1.4256
C 16.4983 -1.5278 2.4314
O 15.459900000000001 -1.2281 3.0748
C 17.716 -0.781 2.8637
H 18.6188 -2.8669 -1.1929
H 16.8524 -2.9129 -1.3116
H 17.668300000000002 -1.4245 -0.792
H 18.5467 -2.6878 1.2157
H 17.6273 -4.0742 0.7577
H 18.4663 -1.5006 3.1989
H 17.4939 -0.1571 3.7356
C 22.7112 1.0354 -0.3588
C 22.3746 0.551 0.925
C 21.6857 1.2778 -1.2995
C 21.0179 0.3151 1.2481
C 20.341 1.0405 -0.9679
C 19.986800000000002 0.5532 0.3099
H 21.9082 1.6292 -2.2325
H 20.777900000000002 -0.0373 2.1765
H 19.6188 1.2292 -1.6678
C 27.3975 -1.1295 1.1065
N 25.0614 -1.8312 0.9458
C 25.9589 -0.8816 1.3083
O 25.6277 0.2158 1.8158
O 27.9214 -0.1494 0.2012
H 27.5668 -2.1279 0.6941
H 27.9094 -1.0585 2.0692
H 25.4357 -2.6415 0.5647
H 23.7112 -1.8029 1.0424
C 36.0887 -5.879 -2.4937
O 28.9214 3.6951 1.572
C 30.234 3.2206 1.9053
C 30.8915 2.4552 0.7286
C 32.2976 1.9037 1.0854
C 32.955799999999996 1.1364 -0.093
C 34.359899999999996 0.5796 0.267
C 34.9938 -0.1361 -0.8623
N 34.435 -1.2841 -1.3163
C 34.911699999999996 -2.0979 -2.3917
C 35.2579 -3.5166 -1.8761
C 35.7436 -4.4629 -3.0064
O 36.0424 0.3317 -1.3674
H 35.2109 -6.3455 -2.0422
H 36.8879 -5.8314 -1.7513
H 36.4238 -6.5011 -3.3259
H 30.1982 2.61 2.8094
H 30.8413 4.1001 2.1288
H 30.9753 3.1357 -0.1232
H 30.2493 1.6247 0.4294
H 32.2074 1.2293 1.9418
H 32.944 2.7375 1.3741
H 33.0495 1.8115 -0.949
H 32.3021 0.3082 -0.3822
H 34.2775 -0.1101 1.1112
H 34.9983 1.411 0.5809
H 33.629599999999996 -1.5868 -0.8673
H 35.7892 -1.6647 -2.8797
H 34.1133 -2.1641 -3.1341
H 34.3707 -3.9496 -1.4045
H 36.0413 -3.4339 -1.1171
H 34.963499999999996 -4.5494 -3.7677
H 36.6337 -4.038 -3.4785
