51
F15_F36_F5_F2_F51
C -7.1979 -1.2049 -2.1476
C -6.843 0.3071 -2.2725
O -6.181 -2.0071 -1.5257
O -5.5541 0.6628 -1.7464
C -2.5269 -0.6121 -0.1079
C -2.8441 -1.9663 0.0044
C -3.4278 0.2936 -0.696
C -4.074 -2.4581 -0.4685
C -4.664 -0.1884 -1.1737
C -4.986 -1.5598 -1.0603
N -1.3207 -0.3199 0.3919
S -1.5942 -2.8922 0.7571
C -0.6923 -1.4008 0.8879
H -7.3852 -1.6207 -3.1399
H -8.1126 -1.3196 -1.562
H -7.5905 0.9039 -1.7455
H -6.8633 0.6028 -3.3236
H -3.1896 1.2846 -0.7754
H -4.303 -3.4507 -0.3846
C 1.2176 1.0327 -1.0278
N 0.9941000000000002 -0.3781 -0.7967
C 2.0371 -1.2754 -0.7274
O 1.8132000000000001 -2.4978 -0.536
C 3.4852 -0.9469 -0.8693
C 4.2336 -1.036 0.4894
H 0.3077000000000001 1.6364 -0.97
H 1.9021000000000001 1.4312 -0.2757
H 1.6477000000000002 1.1842 -2.02
H 3.928 -1.6462 -1.5844
H 3.6354 0.0502 -1.2835
H 4.1565 -2.05 0.8925
H 3.7329 -0.3725 1.2013
C 8.326 1.0354 -0.3588
C 7.9894 0.551 0.925
C 7.3005 1.2778 -1.2995
C 6.6327 0.3151 1.2481
C 5.9558 1.0405 -0.9679
C 5.6016 0.5532 0.3099
H 7.523000000000001 1.6292 -2.2325
H 6.3927000000000005 -0.0373 2.1765
H 5.2336 1.2292 -1.6678
O 9.9685 0.3316 1.8022
C 9.9143 -0.1508 3.1489
H 10.928400000000002 -0.2004 3.5454
H 9.326 0.5259 3.7707
H 9.476300000000002 -1.1498 3.1765
F 11.928400000000002 -1.2311 0.0678
F 12.760800000000001 0.8016 -0.2701
F 12.946100000000001 -0.1838 1.7431
C 12.961900000000002 -0.3884 0.3852
O 14.1859 -1.008 -0.0307
