52
F3_F4_F1_F5_F2_F27
O -8.6842 -1.9254 -1.0429
N -7.7509 -1.998 -0.2865
O -8.0442 -2.2992 0.8413
C -3.6485999999999996 -1.2591 -1.4908
C -3.9223 -1.6036 -0.1702
C -4.684 -1.1545 -2.432
C -5.241099999999999 -1.8537 0.2475
C -6.0085999999999995 -1.4039 -2.0202
C -6.3183 -1.758 -0.6763
N -2.3453 -1.0563 -1.7161
S -2.5044999999999997 -1.6749 0.8157
C -1.5980999999999996 -1.2327 -0.6117
H -4.4805 -0.9013 -3.4015
H -5.4082 -2.1045 1.2244
H -6.7509 -1.3233 -2.7188
N -0.5980999999999997 -1.0549 -0.7103
C 0.34950000000000025 -1.1772 0.2523
O 0.08070000000000027 -1.4996 1.4339
C 1.7685000000000002 -0.9304 -0.0912
C 2.3516000000000004 0.3041 0.6508
H -0.27459999999999973 -0.8048 -1.5905
H 1.8671000000000002 -0.7816 -1.1703
H 2.3468000000000004 -1.8209 0.1705
H 1.7688000000000001 1.1946 0.3974
H 2.2413000000000003 0.1491 1.7283
C 6.444000000000001 1.0354 -0.3588
C 6.1074 0.551 0.925
C 5.418500000000001 1.2778 -1.2995
C 4.7507 0.3151 1.2481
C 4.0738 1.0405 -0.9679
C 3.7196000000000007 0.5532 0.3099
H 5.641000000000001 1.6292 -2.2325
H 4.510700000000001 -0.0373 2.1765
H 3.3516000000000004 1.2292 -1.6678
O 8.086500000000001 0.3316 1.8022
C 8.032300000000001 -0.1508 3.1489
H 9.046400000000002 -0.2004 3.5454
H 7.444000000000001 0.5259 3.7707
H 7.594300000000001 -1.1498 3.1765
C 10.7237 -1.765 1.6205
C 11.9186 -0.9944 2.0677
C 14.4424 -0.5753 1.7363
O 15.5909 -1.0065 0.9941
C 13.207999999999998 -1.3982 1.301
O 10.3464 -2.6465 2.4316
H 12.0979 -1.1731 3.1334
H 11.725 0.0754 1.9702
H 14.6253 -0.7204 2.8042
H 14.2635 0.4858 1.5435
H 13.413499999999999 -2.4573 1.482
H 13.068 -1.265 0.2261
H 10.0464 -1.5876 0.4342
