73
F3_F4_F1_F5_F35_F40
O -8.6842 -1.9254 -1.0429
N -7.7509 -1.998 -0.2865
O -8.0442 -2.2992 0.8413
C -3.6485999999999996 -1.2591 -1.4908
C -3.9223 -1.6036 -0.1702
C -4.684 -1.1545 -2.432
C -5.241099999999999 -1.8537 0.2475
C -6.0085999999999995 -1.4039 -2.0202
C -6.3183 -1.758 -0.6763
N -2.3453 -1.0563 -1.7161
S -2.5044999999999997 -1.6749 0.8157
C -1.5980999999999996 -1.2327 -0.6117
H -4.4805 -0.9013 -3.4015
H -5.4082 -2.1045 1.2244
H -6.7509 -1.3233 -2.7188
N -0.5980999999999997 -1.0549 -0.7103
C 0.34950000000000025 -1.1772 0.2523
O 0.08070000000000027 -1.4996 1.4339
C 1.7685000000000002 -0.9304 -0.0912
C 2.3516000000000004 0.3041 0.6508
H -0.27459999999999973 -0.8048 -1.5905
H 1.8671000000000002 -0.7816 -1.1703
H 2.3468000000000004 -1.8209 0.1705
H 1.7688000000000001 1.1946 0.3974
H 2.2413000000000003 0.1491 1.7283
C 6.444000000000001 1.0354 -0.3588
C 6.1074 0.551 0.925
C 5.418500000000001 1.2778 -1.2995
C 4.7507 0.3151 1.2481
C 4.0738 1.0405 -0.9679
C 3.7196000000000007 0.5532 0.3099
H 5.641000000000001 1.6292 -2.2325
H 4.510700000000001 -0.0373 2.1765
H 3.3516000000000004 1.2292 -1.6678
C 14.6113 -5.879 -2.4937
O 7.444000000000001 3.6951 1.572
C 8.7566 3.2206 1.9053
C 9.414100000000001 2.4552 0.7286
C 10.8202 1.9037 1.0854
C 11.4784 1.1364 -0.093
C 12.8825 0.5796 0.267
C 13.5164 -0.1361 -0.8623
N 12.957600000000001 -1.2841 -1.3163
C 13.4343 -2.0979 -2.3917
C 13.7805 -3.5166 -1.8761
C 14.266200000000001 -4.4629 -3.0064
O 14.565000000000001 0.3317 -1.3674
H 13.733500000000001 -6.3455 -2.0422
H 15.4105 -5.8314 -1.7513
H 14.9464 -6.5011 -3.3259
H 8.7208 2.61 2.8094
H 9.363900000000001 4.1001 2.1288
H 9.497900000000001 3.1357 -0.1232
H 8.7719 1.6247 0.4294
H 10.73 1.2293 1.9418
H 11.4666 2.7375 1.3741
H 11.5721 1.8115 -0.949
H 10.8247 0.3082 -0.3822
H 12.8001 -0.1101 1.1112
H 13.520900000000001 1.411 0.5809
H 12.1522 -1.5868 -0.8673
H 14.311800000000002 -1.6647 -2.8797
H 12.6359 -2.1641 -3.1341
H 12.8933 -3.9496 -1.4045
H 14.5639 -3.4339 -1.1171
H 13.4861 -4.5494 -3.7677
H 15.1563 -4.038 -3.4785
N 17.115299999999998 -0.6826 -2.4804
C 18.3652 -0.7737 -3.155
H 16.4105 -1.2486 -2.8342
H 18.2715 -1.4935 -3.9684
H 18.6436 0.1918 -3.5804
H 19.144199999999998 -1.1225 -2.4751
