79
F48_F4_F6_F5_F40_F35
O -3.7388 -5.2357 -1.3962
S -3.6286 -4.7302 0.1085
N -2.0179 -4.289 0.3877
O -3.9406 -5.9747 1.0477
H -1.5671 -4.7494 1.1133
H -4.7796 -3.456 0.4746
C 2.5352 -1.2591 -1.4908
C 2.2615 -1.6036 -0.1702
C 1.4997999999999996 -1.1545 -2.432
C 0.9427000000000003 -1.8537 0.2475
C 0.17520000000000024 -1.4039 -2.0202
C -0.13450000000000006 -1.758 -0.6763
N 3.8385 -1.0563 -1.7161
S 3.6793 -1.6749 0.8157
C 4.5857 -1.2327 -0.6117
H 1.7032999999999996 -0.9013 -3.4015
H 0.7755999999999998 -2.1045 1.2244
H -0.5670999999999999 -1.3233 -2.7188
C 7.8169 -2.5141 -0.7382
C 7.7414000000000005 -2.9815 0.735
N 6.5654 -2.4707 1.4256
C 6.6241 -1.5278 2.4314
O 5.585700000000001 -1.2281 3.0748
C 7.841800000000001 -0.781 2.8637
H 8.7446 -2.8669 -1.1929
H 6.978200000000001 -2.9129 -1.3116
H 7.7941 -1.4245 -0.792
H 8.672500000000001 -2.6878 1.2157
H 7.753100000000001 -4.0742 0.7577
H 8.5921 -1.5006 3.1989
H 7.619700000000001 -0.1571 3.7356
C 12.837 1.0354 -0.3588
C 12.500399999999999 0.551 0.925
C 11.8115 1.2778 -1.2995
C 11.143699999999999 0.3151 1.2481
C 10.4668 1.0405 -0.9679
C 10.1126 0.5532 0.3099
H 12.034 1.6292 -2.2325
H 10.9037 -0.0373 2.1765
H 9.7446 1.2292 -1.6678
N 14.5418 -0.6826 -2.4804
C 15.7917 -0.7737 -3.155
H 13.837 -1.2486 -2.8342
H 15.698 -1.4935 -3.9684
H 16.0701 0.1918 -3.5804
H 16.570700000000002 -1.1225 -2.4751
C 24.738000000000003 -5.879 -2.4937
O 17.570700000000002 3.6951 1.572
C 18.883300000000006 3.2206 1.9053
C 19.540800000000004 2.4552 0.7286
C 20.946900000000003 1.9037 1.0854
C 21.605100000000004 1.1364 -0.093
C 23.009200000000003 0.5796 0.267
C 23.643100000000004 -0.1361 -0.8623
N 23.084300000000006 -1.2841 -1.3163
C 23.561000000000003 -2.0979 -2.3917
C 23.907200000000003 -3.5166 -1.8761
C 24.392900000000004 -4.4629 -3.0064
O 24.691700000000004 0.3317 -1.3674
H 23.860200000000006 -6.3455 -2.0422
H 25.537200000000006 -5.8314 -1.7513
H 25.073100000000004 -6.5011 -3.3259
H 18.847500000000004 2.61 2.8094
H 19.490600000000004 4.1001 2.1288
H 19.624600000000004 3.1357 -0.1232
H 18.898600000000005 1.6247 0.4294
H 20.856700000000004 1.2293 1.9418
H 21.593300000000003 2.7375 1.3741
H 21.698800000000006 1.8115 -0.949
H 20.951400000000003 0.3082 -0.3822
H 22.926800000000004 -0.1101 1.1112
H 23.647600000000004 1.411 0.5809
H 22.278900000000004 -1.5868 -0.8673
H 24.438500000000005 -1.6647 -2.8797
H 22.762600000000003 -2.1641 -3.1341
H 23.020000000000003 -3.9496 -1.4045
H 24.690600000000003 -3.4339 -1.1171
H 23.612800000000004 -4.5494 -3.7677
H 25.283 -4.038 -3.4785
