60
F31_F4_F1_F5_F40_F9
C -11.2134 -3.9054 -3.5512
C -10.4658 -3.2053 -2.3943
C -10.6852 -1.6677 -2.3812
N -8.5472 -1.0395 -1.323
C -6.2864 -0.7018 -0.6766
C -5.2694 -0.2172 0.171
C -7.6611 -0.536 -0.4306
O -8.0664 0.0645 0.5945
C -9.969 -0.9485 -1.2106
H -12.2889 -3.7374 -3.4673
H -11.0256 -4.9802 -3.515
H -10.8677 -3.5242 -4.5142
H -9.399 -3.4229 -2.4915
H -10.8139 -3.6294 -1.4486
H -11.757 -1.4654 -2.2994
H -10.3366 -1.2411 -3.3261
H -8.1883 -1.4921 -2.103
H -6.0236 -1.1969 -1.5309
H -5.5666 0.3148 0.9949
H -10.2959 -1.3839 -0.2622
H -10.257 0.1063 -1.2208
C -1.1671 -1.2591 -1.4908
C -1.4408000000000003 -1.6036 -0.1702
C -2.2025000000000006 -1.1545 -2.432
C -2.7596 -1.8537 0.2475
C -3.5271 -1.4039 -2.0202
C -3.8368 -1.758 -0.6763
N 0.13619999999999965 -1.0563 -1.7161
S -0.02300000000000013 -1.6749 0.8157
C 0.8834 -1.2327 -0.6117
H -1.9990000000000006 -0.9013 -3.4015
H -2.9267000000000003 -2.1045 1.2244
H -4.2694 -1.3233 -2.7188
N 1.8834 -1.0549 -0.7103
C 2.831 -1.1772 0.2523
O 2.5622 -1.4996 1.4339
C 4.25 -0.9304 -0.0912
C 4.8331 0.3041 0.6508
H 2.2069 -0.8048 -1.5905
H 4.348599999999999 -0.7816 -1.1703
H 4.8283000000000005 -1.8209 0.1705
H 4.250299999999999 1.1946 0.3974
H 4.722799999999999 0.1491 1.7283
C 8.9255 1.0354 -0.3588
C 8.588899999999999 0.551 0.925
C 7.9 1.2778 -1.2995
C 7.2322 0.3151 1.2481
C 6.5553 1.0405 -0.9679
C 6.2011 0.5532 0.3099
H 8.1225 1.6292 -2.2325
H 6.9922 -0.0373 2.1765
H 5.8331 1.2292 -1.6678
N 10.630299999999998 -0.6826 -2.4804
C 11.880199999999999 -0.7737 -3.155
H 9.9255 -1.2486 -2.8342
H 11.7865 -1.4935 -3.9684
H 12.1586 0.1918 -3.5804
H 12.659199999999998 -1.1225 -2.4751
O 13.659199999999998 -2.9391 2.0505
H 14.887399999999998 -3.1549 1.947
