96
F7_F4_F1_F5_F40_F35
O 1.4591 -0.812 -4.6899
N -7.5035 -1.0701 -0.1835
C -6.7475 -0.0303 -0.6143
S -7.2717 1.6363 -0.5762
N -5.5093 -0.3786 -1.0379
C -4.4977 0.5069 -1.5211
C -3.2255 -0.2839 -1.9143
C -2.0912 0.6324 -2.4473
C -0.8157 -0.1608 -2.8406
C 0.3176 0.7564 -3.3752
C 1.5361 -0.0042 -3.7342
N 2.6865 0.224 -3.051
H -7.0456 -1.9232 -0.1295
H -5.2877 -1.3234 -1.0107
H -4.2465 1.2302 -0.7405
H -4.8743 1.044 -2.396
H -2.8632 -0.829 -1.0377
H -3.4878 -1.0143 -2.6854
H -1.8324 1.3629 -1.6754
H -2.4555 1.1768 -3.3233
H -0.4498 -0.7034 -1.9636
H -1.0791 -0.8934 -3.6093
H 0.5536 1.5042 -2.6124
H -0.0306 1.2909 -4.2631
H 2.6381 0.9318 -2.3887
H -8.7925 -1.0838 0.2385
C 6.7888 -1.2591 -1.4908
C 6.5151 -1.6036 -0.1702
C 5.7534 -1.1545 -2.432
C 5.196300000000001 -1.8537 0.2475
C 4.428800000000001 -1.4039 -2.0202
C 4.1191 -1.758 -0.6763
N 8.0921 -1.0563 -1.7161
S 7.9329 -1.6749 0.8157
C 8.839300000000001 -1.2327 -0.6117
H 5.9569 -0.9013 -3.4015
H 5.0292 -2.1045 1.2244
H 3.6865000000000006 -1.3233 -2.7188
N 9.839300000000001 -1.0549 -0.7103
C 10.786900000000001 -1.1772 0.2523
O 10.5181 -1.4996 1.4339
C 12.205900000000002 -0.9304 -0.0912
C 12.789000000000001 0.3041 0.6508
H 10.1628 -0.8048 -1.5905
H 12.3045 -0.7816 -1.1703
H 12.784200000000002 -1.8209 0.1705
H 12.2062 1.1946 0.3974
H 12.678700000000001 0.1491 1.7283
C 16.881400000000003 1.0354 -0.3588
C 16.544800000000002 0.551 0.925
C 15.855900000000002 1.2778 -1.2995
C 15.188100000000002 0.3151 1.2481
C 14.511200000000002 1.0405 -0.9679
C 14.157000000000002 0.5532 0.3099
H 16.078400000000002 1.6292 -2.2325
H 14.948100000000002 -0.0373 2.1765
H 13.789000000000001 1.2292 -1.6678
N 18.586200000000005 -0.6826 -2.4804
C 19.836100000000002 -0.7737 -3.155
H 17.881400000000003 -1.2486 -2.8342
H 19.742400000000004 -1.4935 -3.9684
H 20.114500000000003 0.1918 -3.5804
H 20.615100000000005 -1.1225 -2.4751
C 28.782400000000006 -5.879 -2.4937
O 21.615100000000005 3.6951 1.572
C 22.92770000000001 3.2206 1.9053
C 23.585200000000007 2.4552 0.7286
C 24.991300000000006 1.9037 1.0854
C 25.649500000000007 1.1364 -0.093
C 27.053600000000007 0.5796 0.267
C 27.687500000000007 -0.1361 -0.8623
N 27.12870000000001 -1.2841 -1.3163
C 27.605400000000007 -2.0979 -2.3917
C 27.951600000000006 -3.5166 -1.8761
C 28.437300000000008 -4.4629 -3.0064
O 28.736100000000008 0.3317 -1.3674
H 27.90460000000001 -6.3455 -2.0422
H 29.58160000000001 -5.8314 -1.7513
H 29.117500000000007 -6.5011 -3.3259
H 22.891900000000007 2.61 2.8094
H 23.535000000000007 4.1001 2.1288
H 23.669000000000008 3.1357 -0.1232
H 22.94300000000001 1.6247 0.4294
H 24.901100000000007 1.2293 1.9418
H 25.637700000000006 2.7375 1.3741
H 25.74320000000001 1.8115 -0.949
H 24.995800000000006 0.3082 -0.3822
H 26.971200000000007 -0.1101 1.1112
H 27.692000000000007 1.411 0.5809
H 26.323300000000007 -1.5868 -0.8673
H 28.482900000000008 -1.6647 -2.8797
H 26.807000000000006 -2.1641 -3.1341
H 27.064400000000006 -3.9496 -1.4045
H 28.735000000000007 -3.4339 -1.1171
H 27.657200000000007 -4.5494 -3.7677
H 29.327400000000004 -4.038 -3.4785
