98
F7_F4_F6_F5_F35_F2
O 1.4591 -0.812 -4.6899
N -7.5035 -1.0701 -0.1835
C -6.7475 -0.0303 -0.6143
S -7.2717 1.6363 -0.5762
N -5.5093 -0.3786 -1.0379
C -4.4977 0.5069 -1.5211
C -3.2255 -0.2839 -1.9143
C -2.0912 0.6324 -2.4473
C -0.8157 -0.1608 -2.8406
C 0.3176 0.7564 -3.3752
C 1.5361 -0.0042 -3.7342
N 2.6865 0.224 -3.051
H -7.0456 -1.9232 -0.1295
H -5.2877 -1.3234 -1.0107
H -4.2465 1.2302 -0.7405
H -4.8743 1.044 -2.396
H -2.8632 -0.829 -1.0377
H -3.4878 -1.0143 -2.6854
H -1.8324 1.3629 -1.6754
H -2.4555 1.1768 -3.3233
H -0.4498 -0.7034 -1.9636
H -1.0791 -0.8934 -3.6093
H 0.5536 1.5042 -2.6124
H -0.0306 1.2909 -4.2631
H 2.6381 0.9318 -2.3887
H -8.7925 -1.0838 0.2385
C 6.7888 -1.2591 -1.4908
C 6.5151 -1.6036 -0.1702
C 5.7534 -1.1545 -2.432
C 5.196300000000001 -1.8537 0.2475
C 4.428800000000001 -1.4039 -2.0202
C 4.1191 -1.758 -0.6763
N 8.0921 -1.0563 -1.7161
S 7.9329 -1.6749 0.8157
C 8.839300000000001 -1.2327 -0.6117
H 5.9569 -0.9013 -3.4015
H 5.0292 -2.1045 1.2244
H 3.6865000000000006 -1.3233 -2.7188
C 12.070500000000001 -2.5141 -0.7382
C 11.995000000000001 -2.9815 0.735
N 10.819 -2.4707 1.4256
C 10.8777 -1.5278 2.4314
O 9.839300000000001 -1.2281 3.0748
C 12.095400000000001 -0.781 2.8637
H 12.9982 -2.8669 -1.1929
H 11.231800000000002 -2.9129 -1.3116
H 12.0477 -1.4245 -0.792
H 12.926100000000002 -2.6878 1.2157
H 12.0067 -4.0742 0.7577
H 12.8457 -1.5006 3.1989
H 11.8733 -0.1571 3.7356
C 17.090600000000002 1.0354 -0.3588
C 16.754 0.551 0.925
C 16.0651 1.2778 -1.2995
C 15.397300000000001 0.3151 1.2481
C 14.720400000000001 1.0405 -0.9679
C 14.366200000000001 0.5532 0.3099
H 16.2876 1.6292 -2.2325
H 15.157300000000001 -0.0373 2.1765
H 13.9982 1.2292 -1.6678
C 25.257900000000003 -5.879 -2.4937
O 18.090600000000002 3.6951 1.572
C 19.403200000000005 3.2206 1.9053
C 20.060700000000004 2.4552 0.7286
C 21.466800000000003 1.9037 1.0854
C 22.125000000000004 1.1364 -0.093
C 23.529100000000003 0.5796 0.267
C 24.163000000000004 -0.1361 -0.8623
N 23.604200000000006 -1.2841 -1.3163
C 24.080900000000003 -2.0979 -2.3917
C 24.427100000000003 -3.5166 -1.8761
C 24.912800000000004 -4.4629 -3.0064
O 25.211600000000004 0.3317 -1.3674
H 24.380100000000006 -6.3455 -2.0422
H 26.057100000000005 -5.8314 -1.7513
H 25.593000000000004 -6.5011 -3.3259
H 19.367400000000004 2.61 2.8094
H 20.010500000000004 4.1001 2.1288
H 20.144500000000004 3.1357 -0.1232
H 19.418500000000005 1.6247 0.4294
H 21.376600000000003 1.2293 1.9418
H 22.113200000000003 2.7375 1.3741
H 22.218700000000005 1.8115 -0.949
H 21.471300000000003 0.3082 -0.3822
H 23.446700000000003 -0.1101 1.1112
H 24.167500000000004 1.411 0.5809
H 22.798800000000004 -1.5868 -0.8673
H 24.958400000000005 -1.6647 -2.8797
H 23.282500000000002 -2.1641 -3.1341
H 23.539900000000003 -3.9496 -1.4045
H 25.210500000000003 -3.4339 -1.1171
H 24.132700000000003 -4.5494 -3.7677
H 25.8029 -4.038 -3.4785
O 27.699600000000004 0.3316 1.8022
C 27.645400000000006 -0.1508 3.1489
H 28.65950000000001 -0.2004 3.5454
H 27.057100000000005 0.5259 3.7707
H 27.207400000000007 -1.1498 3.1765
