37
F29_F4_F36_F5
F 7.5191 -0.4893 0.2975
C 11.6214 -1.2591 -1.4908
C 11.3477 -1.6036 -0.1702
C 10.585999999999999 -1.1545 -2.432
C 10.0289 -1.8537 0.2475
C 9.2614 -1.4039 -2.0202
C 8.951699999999999 -1.758 -0.6763
N 12.9247 -1.0563 -1.7161
S 12.7655 -1.6749 0.8157
C 13.6719 -1.2327 -0.6117
H 10.7895 -0.9013 -3.4015
H 9.861799999999999 -2.1045 1.2244
H 8.5191 -1.3233 -2.7188
C 15.581800000000003 1.0327 -1.0278
N 15.358300000000003 -0.3781 -0.7967
C 16.401300000000003 -1.2754 -0.7274
O 16.177400000000002 -2.4978 -0.536
C 17.849400000000003 -0.9469 -0.8693
C 18.597800000000003 -1.036 0.4894
H 14.671900000000003 1.6364 -0.97
H 16.266300000000005 1.4312 -0.2757
H 16.011900000000004 1.1842 -2.02
H 18.292200000000005 -1.6462 -1.5844
H 17.999600000000004 0.0502 -1.2835
H 18.520700000000005 -2.05 0.8925
H 18.097100000000005 -0.3725 1.2013
C 22.690200000000004 1.0354 -0.3588
C 22.353600000000004 0.551 0.925
C 21.664700000000003 1.2778 -1.2995
C 20.996900000000004 0.3151 1.2481
C 20.320000000000004 1.0405 -0.9679
C 19.9658 0.5532 0.3099
H 24.011100000000003 1.2484 -0.6285
H 23.376000000000005 0.3316 1.8022
H 21.887200000000004 1.6292 -2.2325
H 20.7569 -0.0373 2.1765
H 19.597800000000003 1.2292 -1.6678
