76
F43_F4_F1_F5_F32_F35
F -9.1072 -3.8069 0.1789
F -9.8111 -2.7747 1.9987
C -9.1891 -2.5777 0.7877
F -10.0187 -1.7758 0.0413
C -5.004900000000001 -1.2591 -1.4908
C -5.278600000000001 -1.6036 -0.1702
C -6.040300000000001 -1.1545 -2.432
C -6.5974 -1.8537 0.2475
C -7.3649000000000004 -1.4039 -2.0202
C -7.674600000000001 -1.758 -0.6763
N -3.701600000000001 -1.0563 -1.7161
S -3.8608000000000007 -1.6749 0.8157
C -2.9544000000000006 -1.2327 -0.6117
H -5.836800000000001 -0.9013 -3.4015
H -6.764500000000001 -2.1045 1.2244
H -8.1072 -1.3233 -2.7188
N -1.9544000000000006 -1.0549 -0.7103
C -1.0068000000000006 -1.1772 0.2523
O -1.2756000000000007 -1.4996 1.4339
C 0.41219999999999923 -0.9304 -0.0912
C 0.9952999999999994 0.3041 0.6508
H -1.6309000000000007 -0.8048 -1.5905
H 0.5107999999999993 -0.7816 -1.1703
H 0.9904999999999995 -1.8209 0.1705
H 0.4124999999999992 1.1946 0.3974
H 0.8849999999999993 0.1491 1.7283
C 5.0877 1.0354 -0.3588
C 4.751099999999999 0.551 0.925
C 4.0622 1.2778 -1.2995
C 3.394399999999999 0.3151 1.2481
C 2.7174999999999994 1.0405 -0.9679
C 2.3632999999999997 0.5532 0.3099
H 4.2847 1.6292 -2.2325
H 3.1544 -0.0373 2.1765
H 1.9952999999999994 1.2292 -1.6678
C 8.3895 -1.0292 -0.4521
O 6.0877 -0.455 0.0669
C 6.9055 -1.3728 -0.671
H 8.6389 -1.1021 0.6082
H 9.018699999999999 -1.7241 -1.0112
H 8.5939 -0.0134 -0.7957
H 6.6720999999999995 -1.3023 -1.7362
H 6.7172 -2.3935 -0.3291
C 17.186 -5.879 -2.4937
O 10.018699999999999 3.6951 1.572
C 11.331299999999999 3.2206 1.9053
C 11.9888 2.4552 0.7286
C 13.3949 1.9037 1.0854
C 14.053099999999999 1.1364 -0.093
C 15.457199999999998 0.5796 0.267
C 16.091099999999997 -0.1361 -0.8623
N 15.5323 -1.2841 -1.3163
C 16.009 -2.0979 -2.3917
C 16.3552 -3.5166 -1.8761
C 16.840899999999998 -4.4629 -3.0064
O 17.139699999999998 0.3317 -1.3674
H 16.3082 -6.3455 -2.0422
H 17.9852 -5.8314 -1.7513
H 17.521099999999997 -6.5011 -3.3259
H 11.295499999999999 2.61 2.8094
H 11.9386 4.1001 2.1288
H 12.0726 3.1357 -0.1232
H 11.346599999999999 1.6247 0.4294
H 13.304699999999999 1.2293 1.9418
H 14.0413 2.7375 1.3741
H 14.146799999999999 1.8115 -0.949
H 13.3994 0.3082 -0.3822
H 15.374799999999999 -0.1101 1.1112
H 16.095599999999997 1.411 0.5809
H 14.726899999999999 -1.5868 -0.8673
H 16.886499999999998 -1.6647 -2.8797
H 15.2106 -2.1641 -3.1341
H 15.468 -3.9496 -1.4045
H 17.138599999999997 -3.4339 -1.1171
H 16.0608 -4.5494 -3.7677
H 17.730999999999998 -4.038 -3.4785
