76
F50_F4_F6_F5_F9_F35
C -7.6964 -3.3071 -0.5026
C -7.5919 -1.8719 0.0625
H -8.7016 -3.6971 -0.3315
H -7.5024 -3.3076 -1.5774
H -6.9821 -3.9715 -0.0125
H -8.3821 -1.2729 -0.3988
H -7.7939 -1.8921 1.1367
C -2.8798 -1.2591 -1.4908
C -3.1535 -1.6036 -0.1702
C -3.9152000000000005 -1.1545 -2.432
C -4.4723 -1.8537 0.2475
C -5.2398 -1.4039 -2.0202
C -5.5495 -1.758 -0.6763
N -1.5765000000000002 -1.0563 -1.7161
S -1.7357 -1.6749 0.8157
C -0.8292999999999999 -1.2327 -0.6117
H -3.7117000000000004 -0.9013 -3.4015
H -4.6394 -2.1045 1.2244
H -5.9821 -1.3233 -2.7188
C 2.4019000000000004 -2.5141 -0.7382
C 2.3264 -2.9815 0.735
N 1.1504 -2.4707 1.4256
C 1.2091 -1.5278 2.4314
O 0.17070000000000007 -1.2281 3.0748
C 2.4268 -0.781 2.8637
H 3.3296 -2.8669 -1.1929
H 1.5632000000000001 -2.9129 -1.3116
H 2.3791 -1.4245 -0.792
H 3.2575000000000003 -2.6878 1.2157
H 2.3381 -4.0742 0.7577
H 3.1771000000000003 -1.5006 3.1989
H 2.2047 -0.1571 3.7356
C 7.422000000000001 1.0354 -0.3588
C 7.0854 0.551 0.925
C 6.3965000000000005 1.2778 -1.2995
C 5.7287 0.3151 1.2481
C 5.0518 1.0405 -0.9679
C 4.6976 0.5532 0.3099
H 6.619000000000001 1.6292 -2.2325
H 5.488700000000001 -0.0373 2.1765
H 4.3296 1.2292 -1.6678
O 8.422 -2.9391 2.0505
H 9.6502 -3.1549 1.947
C 17.8175 -5.879 -2.4937
O 10.6502 3.6951 1.572
C 11.9628 3.2206 1.9053
C 12.6203 2.4552 0.7286
C 14.026399999999999 1.9037 1.0854
C 14.6846 1.1364 -0.093
C 16.0887 0.5796 0.267
C 16.7226 -0.1361 -0.8623
N 16.163800000000002 -1.2841 -1.3163
C 16.6405 -2.0979 -2.3917
C 16.9867 -3.5166 -1.8761
C 17.4724 -4.4629 -3.0064
O 17.7712 0.3317 -1.3674
H 16.939700000000002 -6.3455 -2.0422
H 18.6167 -5.8314 -1.7513
H 18.1526 -6.5011 -3.3259
H 11.927 2.61 2.8094
H 12.5701 4.1001 2.1288
H 12.7041 3.1357 -0.1232
H 11.9781 1.6247 0.4294
H 13.9362 1.2293 1.9418
H 14.672799999999999 2.7375 1.3741
H 14.7783 1.8115 -0.949
H 14.030899999999999 0.3082 -0.3822
H 16.0063 -0.1101 1.1112
H 16.7271 1.411 0.5809
H 15.3584 -1.5868 -0.8673
H 17.518 -1.6647 -2.8797
H 15.842099999999999 -2.1641 -3.1341
H 16.0995 -3.9496 -1.4045
H 17.7701 -3.4339 -1.1171
H 16.6923 -4.5494 -3.7677
H 18.362499999999997 -4.038 -3.4785
