83
F42_F4_F1_F5_F25_F35
C -7.846 -0.4564 -1.3096
C -8.4274 -1.4295 -0.2461
C -7.5076 -2.6425 0.0665
C -8.1424 -3.6273 1.0842
C -7.2278 -4.8317 1.4014
H -8.5889 0.3172 -1.5224
H -7.7042 -1.0134 -2.2404
H -8.6319 -0.8815 0.6777
H -9.3839 -1.8037 -0.6223
H -6.5599 -2.2795 0.4733
H -7.2965 -3.1781 -0.8634
H -8.3557 -3.0979 2.0169
H -9.0873 -4.0048 0.6838
H -7.7208 -5.4903 2.119
H -7.0184 -5.4009 0.4936
H -6.2846 -4.4909 1.8332
C -2.1823 -1.2591 -1.4908
C -2.4560000000000004 -1.6036 -0.1702
C -3.2177000000000007 -1.1545 -2.432
C -3.7748 -1.8537 0.2475
C -4.5423 -1.4039 -2.0202
C -4.852 -1.758 -0.6763
N -0.8790000000000004 -1.0563 -1.7161
S -1.0382000000000002 -1.6749 0.8157
C -0.13180000000000014 -1.2327 -0.6117
H -3.0142000000000007 -0.9013 -3.4015
H -3.9419000000000004 -2.1045 1.2244
H -5.2846 -1.3233 -2.7188
N 0.8681999999999997 -1.0549 -0.7103
C 1.8157999999999999 -1.1772 0.2523
O 1.5469999999999997 -1.4996 1.4339
C 3.2348 -0.9304 -0.0912
C 3.8179 0.3041 0.6508
H 1.1916999999999998 -0.8048 -1.5905
H 3.3333999999999997 -0.7816 -1.1703
H 3.8131 -1.8209 0.1705
H 3.2350999999999996 1.1946 0.3974
H 3.7076 0.1491 1.7283
C 7.9103 1.0354 -0.3588
C 7.5737 0.551 0.925
C 6.8848 1.2778 -1.2995
C 6.217 0.3151 1.2481
C 5.5401 1.0405 -0.9679
C 5.1859 0.5532 0.3099
H 7.1073 1.6292 -2.2325
H 5.977 -0.0373 2.1765
H 4.8179 1.2292 -1.6678
N 9.553 1.3119 2.3492
H 8.9103 1.5171 3.0466
H 10.4832 1.5619 2.4652
C 18.6505 -5.879 -2.4937
O 11.4832 3.6951 1.572
C 12.7958 3.2206 1.9053
C 13.4533 2.4552 0.7286
C 14.8594 1.9037 1.0854
C 15.5176 1.1364 -0.093
C 16.9217 0.5796 0.267
C 17.5556 -0.1361 -0.8623
N 16.9968 -1.2841 -1.3163
C 17.4735 -2.0979 -2.3917
C 17.8197 -3.5166 -1.8761
C 18.3054 -4.4629 -3.0064
O 18.6042 0.3317 -1.3674
H 17.7727 -6.3455 -2.0422
H 19.4497 -5.8314 -1.7513
H 18.985599999999998 -6.5011 -3.3259
H 12.76 2.61 2.8094
H 13.4031 4.1001 2.1288
H 13.5371 3.1357 -0.1232
H 12.8111 1.6247 0.4294
H 14.7692 1.2293 1.9418
H 15.5058 2.7375 1.3741
H 15.6113 1.8115 -0.949
H 14.863900000000001 0.3082 -0.3822
H 16.8393 -0.1101 1.1112
H 17.5601 1.411 0.5809
H 16.1914 -1.5868 -0.8673
H 18.351 -1.6647 -2.8797
H 16.6751 -2.1641 -3.1341
H 16.9325 -3.9496 -1.4045
H 18.603099999999998 -3.4339 -1.1171
H 17.5253 -4.5494 -3.7677
H 19.1955 -4.038 -3.4785
