23
#######
O -6.8018 -2.9513 -0.8438
C -5.795 -3.6977 -0.8163
N -4.5479 -3.2477 -0.5275
C -5.9855 -5.143 -1.0759
C -5.2415 -5.6557 -2.3399
C -5.7415 -5.0199 -3.6671
C -5.011 -5.5885 -4.9143
C -5.5164 -5.0005 -6.2548
N -5.2246 -3.5675 -6.3765
H -3.8699 -3.938 -0.4501
H -7.0505 -5.3719 -1.1805
H -5.6233 -5.6962 -0.2054
H -4.1692 -5.4708 -2.2295
H -5.383 -6.7388 -2.3953
H -5.5841 -3.9393 -3.6257
H -6.8147 -5.2047 -3.7675
H -5.1546 -6.6722 -4.9448
H -3.938 -5.3958 -4.8273
H -6.593 -5.1549 -6.3535
H -5.0207 -5.5153 -7.0804
H -5.5804 -3.2676 -7.2868
H -5.7826 -3.0847 -5.6694
H -4.1121 -1.9802 -0.3013