68
F29_F4_F1_F5_F25_F35
F 7.5191 -0.4893 0.2975
C 11.6214 -1.2591 -1.4908
C 11.3477 -1.6036 -0.1702
C 10.585999999999999 -1.1545 -2.432
C 10.0289 -1.8537 0.2475
C 9.2614 -1.4039 -2.0202
C 8.951699999999999 -1.758 -0.6763
N 12.9247 -1.0563 -1.7161
S 12.7655 -1.6749 0.8157
C 13.6719 -1.2327 -0.6117
H 10.7895 -0.9013 -3.4015
H 9.861799999999999 -2.1045 1.2244
H 8.5191 -1.3233 -2.7188
N 14.6719 -1.0549 -0.7103
C 15.6195 -1.1772 0.2523
O 15.3507 -1.4996 1.4339
C 17.0385 -0.9304 -0.0912
C 17.6216 0.3041 0.6508
H 14.9954 -0.8048 -1.5905
H 17.1371 -0.7816 -1.1703
H 17.6168 -1.8209 0.1705
H 17.038800000000002 1.1946 0.3974
H 17.5113 0.1491 1.7283
C 21.714000000000002 1.0354 -0.3588
C 21.3774 0.551 0.925
C 20.6885 1.2778 -1.2995
C 20.0207 0.3151 1.2481
C 19.3438 1.0405 -0.9679
C 18.989600000000003 0.5532 0.3099
H 20.911 1.6292 -2.2325
H 19.780700000000003 -0.0373 2.1765
H 18.6216 1.2292 -1.6678
N 23.356700000000004 1.3119 2.3492
H 22.714000000000002 1.5171 3.0466
H 24.286900000000003 1.5619 2.4652
C 32.4542 -5.879 -2.4937
O 25.286900000000003 3.6951 1.572
C 26.599500000000006 3.2206 1.9053
C 27.257000000000005 2.4552 0.7286
C 28.663100000000004 1.9037 1.0854
C 29.321300000000004 1.1364 -0.093
C 30.725400000000004 0.5796 0.267
C 31.359300000000005 -0.1361 -0.8623
N 30.800500000000007 -1.2841 -1.3163
C 31.277200000000004 -2.0979 -2.3917
C 31.623400000000004 -3.5166 -1.8761
C 32.109100000000005 -4.4629 -3.0064
O 32.407900000000005 0.3317 -1.3674
H 31.576400000000007 -6.3455 -2.0422
H 33.253400000000006 -5.8314 -1.7513
H 32.789300000000004 -6.5011 -3.3259
H 26.563700000000004 2.61 2.8094
H 27.206800000000005 4.1001 2.1288
H 27.340800000000005 3.1357 -0.1232
H 26.614800000000006 1.6247 0.4294
H 28.572900000000004 1.2293 1.9418
H 29.309500000000003 2.7375 1.3741
H 29.415000000000006 1.8115 -0.949
H 28.667600000000004 0.3082 -0.3822
H 30.643000000000004 -0.1101 1.1112
H 31.363800000000005 1.411 0.5809
H 29.995100000000004 -1.5868 -0.8673
H 32.154700000000005 -1.6647 -2.8797
H 30.478800000000003 -2.1641 -3.1341
H 30.736200000000004 -3.9496 -1.4045
H 32.406800000000004 -3.4339 -1.1171
H 31.329000000000004 -4.5494 -3.7677
H 32.9992 -4.038 -3.4785
