76
F12_F4_F6_F5_F35_F32
I -8.6378 -1.6419 1.5252
C -4.535500000000001 -1.2591 -1.4908
C -4.809200000000001 -1.6036 -0.1702
C -5.570900000000001 -1.1545 -2.432
C -6.128 -1.8537 0.2475
C -6.8955 -1.4039 -2.0202
C -7.2052000000000005 -1.758 -0.6763
N -3.2322000000000006 -1.0563 -1.7161
S -3.3914000000000004 -1.6749 0.8157
C -2.4850000000000003 -1.2327 -0.6117
H -5.367400000000001 -0.9013 -3.4015
H -6.295100000000001 -2.1045 1.2244
H -7.6378 -1.3233 -2.7188
C 0.7461999999999998 -2.5141 -0.7382
C 0.6706999999999996 -2.9815 0.735
N -0.5053000000000003 -2.4707 1.4256
C -0.44660000000000033 -1.5278 2.4314
O -1.4850000000000003 -1.2281 3.0748
C 0.7710999999999997 -0.781 2.8637
H 1.6738999999999997 -2.8669 -1.1929
H -0.09250000000000025 -2.9129 -1.3116
H 0.7233999999999996 -1.4245 -0.792
H 1.6018 -2.6878 1.2157
H 0.6823999999999997 -4.0742 0.7577
H 1.5213999999999999 -1.5006 3.1989
H 0.5489999999999997 -0.1571 3.7356
C 5.7663 1.0354 -0.3588
C 5.4296999999999995 0.551 0.925
C 4.7408 1.2778 -1.2995
C 4.0729999999999995 0.3151 1.2481
C 3.3960999999999997 1.0405 -0.9679
C 3.0419 0.5532 0.3099
H 4.9633 1.6292 -2.2325
H 3.833 -0.0373 2.1765
H 2.6738999999999997 1.2292 -1.6678
C 13.933599999999998 -5.879 -2.4937
O 6.7663 3.6951 1.572
C 8.0789 3.2206 1.9053
C 8.7364 2.4552 0.7286
C 10.1425 1.9037 1.0854
C 10.800699999999999 1.1364 -0.093
C 12.204799999999999 0.5796 0.267
C 12.8387 -0.1361 -0.8623
N 12.279900000000001 -1.2841 -1.3163
C 12.756599999999999 -2.0979 -2.3917
C 13.1028 -3.5166 -1.8761
C 13.5885 -4.4629 -3.0064
O 13.8873 0.3317 -1.3674
H 13.055800000000001 -6.3455 -2.0422
H 14.732800000000001 -5.8314 -1.7513
H 14.268699999999999 -6.5011 -3.3259
H 8.043099999999999 2.61 2.8094
H 8.6862 4.1001 2.1288
H 8.8202 3.1357 -0.1232
H 8.0942 1.6247 0.4294
H 10.052299999999999 1.2293 1.9418
H 10.7889 2.7375 1.3741
H 10.894400000000001 1.8115 -0.949
H 10.147 0.3082 -0.3822
H 12.122399999999999 -0.1101 1.1112
H 12.8432 1.411 0.5809
H 11.474499999999999 -1.5868 -0.8673
H 13.6341 -1.6647 -2.8797
H 11.9582 -2.1641 -3.1341
H 12.2156 -3.9496 -1.4045
H 13.886199999999999 -3.4339 -1.1171
H 12.808399999999999 -4.5494 -3.7677
H 14.4786 -4.038 -3.4785
C 18.0346 -1.0292 -0.4521
O 15.732800000000001 -0.455 0.0669
C 16.550600000000003 -1.3728 -0.671
H 18.284 -1.1021 0.6082
H 18.663800000000002 -1.7241 -1.0112
H 18.239 -0.0134 -0.7957
H 16.3172 -1.3023 -1.7362
H 16.3623 -2.3935 -0.3291
