50
F48_F4_F1_F5_F2_F32
O -3.7388 -5.2357 -1.3962
S -3.6286 -4.7302 0.1085
N -2.0179 -4.289 0.3877
O -3.9406 -5.9747 1.0477
H -1.5671 -4.7494 1.1133
H -4.7796 -3.456 0.4746
C 2.5352 -1.2591 -1.4908
C 2.2615 -1.6036 -0.1702
C 1.4997999999999996 -1.1545 -2.432
C 0.9427000000000003 -1.8537 0.2475
C 0.17520000000000024 -1.4039 -2.0202
C -0.13450000000000006 -1.758 -0.6763
N 3.8385 -1.0563 -1.7161
S 3.6793 -1.6749 0.8157
C 4.5857 -1.2327 -0.6117
H 1.7032999999999996 -0.9013 -3.4015
H 0.7755999999999998 -2.1045 1.2244
H -0.5670999999999999 -1.3233 -2.7188
N 5.5857 -1.0549 -0.7103
C 6.5333000000000006 -1.1772 0.2523
O 6.264500000000001 -1.4996 1.4339
C 7.9523 -0.9304 -0.0912
C 8.535400000000001 0.3041 0.6508
H 5.9092 -0.8048 -1.5905
H 8.0509 -0.7816 -1.1703
H 8.5306 -1.8209 0.1705
H 7.9526 1.1946 0.3974
H 8.4251 0.1491 1.7283
C 12.6278 1.0354 -0.3588
C 12.2912 0.551 0.925
C 11.602300000000001 1.2778 -1.2995
C 10.9345 0.3151 1.2481
C 10.2576 1.0405 -0.9679
C 9.903400000000001 0.5532 0.3099
H 11.824800000000002 1.6292 -2.2325
H 10.694500000000001 -0.0373 2.1765
H 9.535400000000001 1.2292 -1.6678
O 14.2703 0.3316 1.8022
C 14.2161 -0.1508 3.1489
H 15.230200000000002 -0.2004 3.5454
H 13.6278 0.5259 3.7707
H 13.778100000000002 -1.1498 3.1765
C 18.532000000000004 -1.0292 -0.4521
O 16.230200000000004 -0.455 0.0669
C 17.048000000000002 -1.3728 -0.671
H 18.7814 -1.1021 0.6082
H 19.1612 -1.7241 -1.0112
H 18.736400000000003 -0.0134 -0.7957
H 16.814600000000002 -1.3023 -1.7362
H 16.859700000000004 -2.3935 -0.3291
