17
#######
C -6.9584 -4.8038 0.6876
C -5.0667 -3.278 -0.1966
O -3.4952 -1.637 -1.8528
C -3.0872 -1.8906 -0.6943
N -1.9323 -1.3962 -0.1877
N -3.8171 -2.6702 0.1352
C -5.6064 -4.1048 0.9974
H -6.8152 -5.5463 -0.1036
H -7.6299 -4.0339 0.2951
H -4.9312 -3.9346 -1.0607
H -5.7878 -2.4978 -0.456
H -1.7707 -1.6091 0.7456
H -3.4636 -2.8286 1.0252
H -4.8572 -4.8556 1.2575
H -5.7407 -3.4426 1.8574
H -7.5908 -5.4419 1.8893
H -0.9829 -0.6213 -0.777