78
F29_F4_F1_F5_F27_F35
F 7.5191 -0.4893 0.2975
C 11.6214 -1.2591 -1.4908
C 11.3477 -1.6036 -0.1702
C 10.585999999999999 -1.1545 -2.432
C 10.0289 -1.8537 0.2475
C 9.2614 -1.4039 -2.0202
C 8.951699999999999 -1.758 -0.6763
N 12.9247 -1.0563 -1.7161
S 12.7655 -1.6749 0.8157
C 13.6719 -1.2327 -0.6117
H 10.7895 -0.9013 -3.4015
H 9.861799999999999 -2.1045 1.2244
H 8.5191 -1.3233 -2.7188
N 14.6719 -1.0549 -0.7103
C 15.6195 -1.1772 0.2523
O 15.3507 -1.4996 1.4339
C 17.0385 -0.9304 -0.0912
C 17.6216 0.3041 0.6508
H 14.9954 -0.8048 -1.5905
H 17.1371 -0.7816 -1.1703
H 17.6168 -1.8209 0.1705
H 17.038800000000002 1.1946 0.3974
H 17.5113 0.1491 1.7283
C 21.714000000000002 1.0354 -0.3588
C 21.3774 0.551 0.925
C 20.6885 1.2778 -1.2995
C 20.0207 0.3151 1.2481
C 19.3438 1.0405 -0.9679
C 18.989600000000003 0.5532 0.3099
H 20.911 1.6292 -2.2325
H 19.780700000000003 -0.0373 2.1765
H 18.6216 1.2292 -1.6678
C 23.3913 -1.765 1.6205
C 24.586199999999998 -0.9944 2.0677
C 27.11 -0.5753 1.7363
O 28.258499999999998 -1.0065 0.9941
C 25.8756 -1.3982 1.301
O 23.014 -2.6465 2.4316
H 24.7655 -1.1731 3.1334
H 24.3926 0.0754 1.9702
H 27.2929 -0.7204 2.8042
H 26.9311 0.4858 1.5435
H 26.0811 -2.4573 1.482
H 25.735599999999998 -1.265 0.2261
H 22.714 -1.5876 0.4342
C 36.425799999999995 -5.879 -2.4937
O 29.258499999999998 3.6951 1.572
C 30.5711 3.2206 1.9053
C 31.2286 2.4552 0.7286
C 32.6347 1.9037 1.0854
C 33.2929 1.1364 -0.093
C 34.697 0.5796 0.267
C 35.3309 -0.1361 -0.8623
N 34.7721 -1.2841 -1.3163
C 35.2488 -2.0979 -2.3917
C 35.595 -3.5166 -1.8761
C 36.0807 -4.4629 -3.0064
O 36.3795 0.3317 -1.3674
H 35.548 -6.3455 -2.0422
H 37.225 -5.8314 -1.7513
H 36.7609 -6.5011 -3.3259
H 30.5353 2.61 2.8094
H 31.1784 4.1001 2.1288
H 31.3124 3.1357 -0.1232
H 30.5864 1.6247 0.4294
H 32.5445 1.2293 1.9418
H 33.2811 2.7375 1.3741
H 33.3866 1.8115 -0.949
H 32.6392 0.3082 -0.3822
H 34.614599999999996 -0.1101 1.1112
H 35.3354 1.411 0.5809
H 33.9667 -1.5868 -0.8673
H 36.1263 -1.6647 -2.8797
H 34.4504 -2.1641 -3.1341
H 34.7078 -3.9496 -1.4045
H 36.3784 -3.4339 -1.1171
H 35.3006 -4.5494 -3.7677
H 36.9708 -4.038 -3.4785
