45
F3_F4_F36_F5_F25_F51
O -8.6842 -1.9254 -1.0429
N -7.7509 -1.998 -0.2865
O -8.0442 -2.2992 0.8413
C -3.6485999999999996 -1.2591 -1.4908
C -3.9223 -1.6036 -0.1702
C -4.684 -1.1545 -2.432
C -5.241099999999999 -1.8537 0.2475
C -6.0085999999999995 -1.4039 -2.0202
C -6.3183 -1.758 -0.6763
N -2.3453 -1.0563 -1.7161
S -2.5044999999999997 -1.6749 0.8157
C -1.5980999999999996 -1.2327 -0.6117
H -4.4805 -0.9013 -3.4015
H -5.4082 -2.1045 1.2244
H -6.7509 -1.3233 -2.7188
C 0.3118000000000004 1.0327 -1.0278
N 0.08830000000000049 -0.3781 -0.7967
C 1.1313000000000004 -1.2754 -0.7274
O 0.9074000000000004 -2.4978 -0.536
C 2.5794000000000006 -0.9469 -0.8693
C 3.3278000000000003 -1.036 0.4894
H -0.5980999999999996 1.6364 -0.97
H 0.9963000000000004 1.4312 -0.2757
H 0.7419000000000004 1.1842 -2.02
H 3.0222000000000007 -1.6462 -1.5844
H 2.7296000000000005 0.0502 -1.2835
H 3.2507000000000006 -2.05 0.8925
H 2.8271000000000006 -0.3725 1.2013
C 7.420200000000001 1.0354 -0.3588
C 7.083600000000001 0.551 0.925
C 6.3947 1.2778 -1.2995
C 5.7269000000000005 0.3151 1.2481
C 5.050000000000001 1.0405 -0.9679
C 4.6958 0.5532 0.3099
H 6.6172 1.6292 -2.2325
H 5.4869 -0.0373 2.1765
H 4.3278 1.2292 -1.6678
N 9.062900000000003 1.3119 2.3492
H 8.420200000000001 1.5171 3.0466
H 9.993100000000002 1.5619 2.4652
F 10.993100000000004 -1.2311 0.0678
F 11.825500000000003 0.8016 -0.2701
F 12.010800000000003 -0.1838 1.7431
C 12.026600000000004 -0.3884 0.3852
O 13.250600000000002 -1.008 -0.0307
