59
F46_F4_F1_F5_F40_F40
C -8.4258 -3.1929 0.6313
N -7.0017 -3.5927 0.4372
O -4.2928 -5.2018 1.7708
C -4.8882 -4.1101 1.6131
N -4.2459 -2.9348 1.3968
C -6.3645 -4.0945 1.697
C -6.8326 -4.5077 -0.7316
H -8.8298 -2.7557 -0.2843
H -8.5048 -2.434 1.4123
H -9.042 -4.0508 0.9122
H -4.8203 -2.1526 1.3719
H -6.7486 -5.0915 1.938
H -6.6192 -3.4404 2.5359
H -7.2445 -4.0529 -1.6349
H -5.7756 -4.6994 -0.9231
H -7.3351 -5.463 -0.5606
C -0.14359999999999973 -1.2591 -1.4908
C -0.4173 -1.6036 -0.1702
C -1.1790000000000003 -1.1545 -2.432
C -1.7360999999999995 -1.8537 0.2475
C -2.5035999999999996 -1.4039 -2.0202
C -2.8133 -1.758 -0.6763
N 1.1597 -1.0563 -1.7161
S 1.0005000000000002 -1.6749 0.8157
C 1.9069000000000003 -1.2327 -0.6117
H -0.9755000000000003 -0.9013 -3.4015
H -1.9032 -2.1045 1.2244
H -3.2459 -1.3233 -2.7188
N 2.9069000000000003 -1.0549 -0.7103
C 3.8545000000000003 -1.1772 0.2523
O 3.5857 -1.4996 1.4339
C 5.2735 -0.9304 -0.0912
C 5.8566 0.3041 0.6508
H 3.2304000000000004 -0.8048 -1.5905
H 5.3721 -0.7816 -1.1703
H 5.851800000000001 -1.8209 0.1705
H 5.2738 1.1946 0.3974
H 5.7463 0.1491 1.7283
C 9.949000000000002 1.0354 -0.3588
C 9.612400000000001 0.551 0.925
C 8.9235 1.2778 -1.2995
C 8.255700000000001 0.3151 1.2481
C 7.5788 1.0405 -0.9679
C 7.224600000000001 0.5532 0.3099
H 9.146 1.6292 -2.2325
H 8.0157 -0.0373 2.1765
H 6.8566 1.2292 -1.6678
N 11.6538 -0.6826 -2.4804
C 12.9037 -0.7737 -3.155
H 10.949000000000002 -1.2486 -2.8342
H 12.810000000000002 -1.4935 -3.9684
H 13.182100000000002 0.1918 -3.5804
H 13.6827 -1.1225 -2.4751
N 15.387500000000001 -0.6826 -2.4804
C 16.6374 -0.7737 -3.155
H 14.6827 -1.2486 -2.8342
H 16.5437 -1.4935 -3.9684
H 16.9158 0.1918 -3.5804
H 17.416400000000003 -1.1225 -2.4751
