52
F3_F4_F6_F5_F9_F27
O -8.6842 -1.9254 -1.0429
N -7.7509 -1.998 -0.2865
O -8.0442 -2.2992 0.8413
C -3.6485999999999996 -1.2591 -1.4908
C -3.9223 -1.6036 -0.1702
C -4.684 -1.1545 -2.432
C -5.241099999999999 -1.8537 0.2475
C -6.0085999999999995 -1.4039 -2.0202
C -6.3183 -1.758 -0.6763
N -2.3453 -1.0563 -1.7161
S -2.5044999999999997 -1.6749 0.8157
C -1.5980999999999996 -1.2327 -0.6117
H -4.4805 -0.9013 -3.4015
H -5.4082 -2.1045 1.2244
H -6.7509 -1.3233 -2.7188
C 1.6331000000000004 -2.5141 -0.7382
C 1.5576000000000003 -2.9815 0.735
N 0.3816000000000004 -2.4707 1.4256
C 0.44030000000000036 -1.5278 2.4314
O -0.5980999999999996 -1.2281 3.0748
C 1.6580000000000004 -0.781 2.8637
H 2.5608000000000004 -2.8669 -1.1929
H 0.7944000000000004 -2.9129 -1.3116
H 1.6103000000000003 -1.4245 -0.792
H 2.4887000000000006 -2.6878 1.2157
H 1.5693000000000004 -4.0742 0.7577
H 2.4083000000000006 -1.5006 3.1989
H 1.4359000000000004 -0.1571 3.7356
C 6.653200000000001 1.0354 -0.3588
C 6.3166 0.551 0.925
C 5.627700000000001 1.2778 -1.2995
C 4.9599 0.3151 1.2481
C 4.283 1.0405 -0.9679
C 3.9288000000000007 0.5532 0.3099
H 5.850200000000001 1.6292 -2.2325
H 4.719900000000001 -0.0373 2.1765
H 3.5608000000000004 1.2292 -1.6678
O 7.653200000000001 -2.9391 2.0505
H 8.881400000000001 -3.1549 1.947
C 10.5587 -1.765 1.6205
C 11.7536 -0.9944 2.0677
C 14.2774 -0.5753 1.7363
O 15.4259 -1.0065 0.9941
C 13.043 -1.3982 1.301
O 10.1814 -2.6465 2.4316
H 11.9329 -1.1731 3.1334
H 11.56 0.0754 1.9702
H 14.4603 -0.7204 2.8042
H 14.098500000000001 0.4858 1.5435
H 13.2485 -2.4573 1.482
H 12.903 -1.265 0.2261
H 9.881400000000001 -1.5876 0.4342
