71
F29_F4_F36_F5_F25_F35
F 7.5191 -0.4893 0.2975
C 11.6214 -1.2591 -1.4908
C 11.3477 -1.6036 -0.1702
C 10.585999999999999 -1.1545 -2.432
C 10.0289 -1.8537 0.2475
C 9.2614 -1.4039 -2.0202
C 8.951699999999999 -1.758 -0.6763
N 12.9247 -1.0563 -1.7161
S 12.7655 -1.6749 0.8157
C 13.6719 -1.2327 -0.6117
H 10.7895 -0.9013 -3.4015
H 9.861799999999999 -2.1045 1.2244
H 8.5191 -1.3233 -2.7188
C 15.581800000000003 1.0327 -1.0278
N 15.358300000000003 -0.3781 -0.7967
C 16.401300000000003 -1.2754 -0.7274
O 16.177400000000002 -2.4978 -0.536
C 17.849400000000003 -0.9469 -0.8693
C 18.597800000000003 -1.036 0.4894
H 14.671900000000003 1.6364 -0.97
H 16.266300000000005 1.4312 -0.2757
H 16.011900000000004 1.1842 -2.02
H 18.292200000000005 -1.6462 -1.5844
H 17.999600000000004 0.0502 -1.2835
H 18.520700000000005 -2.05 0.8925
H 18.097100000000005 -0.3725 1.2013
C 22.690200000000004 1.0354 -0.3588
C 22.353600000000004 0.551 0.925
C 21.664700000000003 1.2778 -1.2995
C 20.996900000000004 0.3151 1.2481
C 20.320000000000004 1.0405 -0.9679
C 19.9658 0.5532 0.3099
H 21.887200000000004 1.6292 -2.2325
H 20.7569 -0.0373 2.1765
H 19.597800000000003 1.2292 -1.6678
N 24.332900000000006 1.3119 2.3492
H 23.690200000000004 1.5171 3.0466
H 25.263100000000005 1.5619 2.4652
C 33.430400000000006 -5.879 -2.4937
O 26.263100000000005 3.6951 1.572
C 27.575700000000005 3.2206 1.9053
C 28.233200000000007 2.4552 0.7286
C 29.639300000000006 1.9037 1.0854
C 30.297500000000007 1.1364 -0.093
C 31.701600000000006 0.5796 0.267
C 32.33550000000001 -0.1361 -0.8623
N 31.776700000000005 -1.2841 -1.3163
C 32.253400000000006 -2.0979 -2.3917
C 32.59960000000001 -3.5166 -1.8761
C 33.085300000000004 -4.4629 -3.0064
O 33.384100000000004 0.3317 -1.3674
H 32.552600000000005 -6.3455 -2.0422
H 34.229600000000005 -5.8314 -1.7513
H 33.7655 -6.5011 -3.3259
H 27.539900000000006 2.61 2.8094
H 28.183000000000007 4.1001 2.1288
H 28.317000000000007 3.1357 -0.1232
H 27.591000000000008 1.6247 0.4294
H 29.549100000000006 1.2293 1.9418
H 30.285700000000006 2.7375 1.3741
H 30.391200000000005 1.8115 -0.949
H 29.643800000000006 0.3082 -0.3822
H 31.619200000000006 -0.1101 1.1112
H 32.34 1.411 0.5809
H 30.971300000000006 -1.5868 -0.8673
H 33.130900000000004 -1.6647 -2.8797
H 31.455000000000005 -2.1641 -3.1341
H 31.712400000000006 -3.9496 -1.4045
H 33.38300000000001 -3.4339 -1.1171
H 32.305200000000006 -4.5494 -3.7677
H 33.97540000000001 -4.038 -3.4785
