94
F16_F4_F1_F5_F32_F35
O -6.8018 -2.9513 -0.8438
C -5.795 -3.6977 -0.8163
N -4.5479 -3.2477 -0.5275
C -5.9855 -5.143 -1.0759
C -5.2415 -5.6557 -2.3399
C -5.7415 -5.0199 -3.6671
C -5.011 -5.5885 -4.9143
C -5.5164 -5.0005 -6.2548
N -5.2246 -3.5675 -6.3765
H -3.8699 -3.938 -0.4501
H -7.0505 -5.3719 -1.1805
H -5.6233 -5.6962 -0.2054
H -4.1692 -5.4708 -2.2295
H -5.383 -6.7388 -2.3953
H -5.5841 -3.9393 -3.6257
H -6.8147 -5.2047 -3.7675
H -5.1546 -6.6722 -4.9448
H -3.938 -5.3958 -4.8273
H -6.593 -5.1549 -6.3535
H -5.0207 -5.5153 -7.0804
H -5.5804 -3.2676 -7.2868
H -5.7826 -3.0847 -5.6694
C 0.2324000000000006 -1.2591 -1.4908
C -0.04129999999999967 -1.6036 -0.1702
C -0.8029999999999999 -1.1545 -2.432
C -1.3600999999999992 -1.8537 0.2475
C -2.1275999999999993 -1.4039 -2.0202
C -2.4372999999999996 -1.758 -0.6763
N 1.5357000000000003 -1.0563 -1.7161
S 1.3765000000000005 -1.6749 0.8157
C 2.2829000000000006 -1.2327 -0.6117
H -0.5994999999999999 -0.9013 -3.4015
H -1.5271999999999997 -2.1045 1.2244
H -2.8698999999999995 -1.3233 -2.7188
N 3.2829000000000006 -1.0549 -0.7103
C 4.2305 -1.1772 0.2523
O 3.9617000000000004 -1.4996 1.4339
C 5.649500000000001 -0.9304 -0.0912
C 6.232600000000001 0.3041 0.6508
H 3.6064000000000007 -0.8048 -1.5905
H 5.748100000000001 -0.7816 -1.1703
H 6.2278 -1.8209 0.1705
H 5.649800000000001 1.1946 0.3974
H 6.122300000000001 0.1491 1.7283
C 10.325000000000001 1.0354 -0.3588
C 9.9884 0.551 0.925
C 9.299500000000002 1.2778 -1.2995
C 8.6317 0.3151 1.2481
C 7.9548000000000005 1.0405 -0.9679
C 7.600600000000001 0.5532 0.3099
H 9.522000000000002 1.6292 -2.2325
H 8.3917 -0.0373 2.1765
H 7.232600000000001 1.2292 -1.6678
C 13.626800000000001 -1.0292 -0.4521
O 11.325000000000001 -0.455 0.0669
C 12.142800000000001 -1.3728 -0.671
H 13.8762 -1.1021 0.6082
H 14.256 -1.7241 -1.0112
H 13.8312 -0.0134 -0.7957
H 11.909400000000002 -1.3023 -1.7362
H 11.954500000000001 -2.3935 -0.3291
C 22.423299999999998 -5.879 -2.4937
O 15.256 3.6951 1.572
C 16.5686 3.2206 1.9053
C 17.2261 2.4552 0.7286
C 18.6322 1.9037 1.0854
C 19.290399999999998 1.1364 -0.093
C 20.694499999999998 0.5796 0.267
C 21.328400000000002 -0.1361 -0.8623
N 20.7696 -1.2841 -1.3163
C 21.246299999999998 -2.0979 -2.3917
C 21.5925 -3.5166 -1.8761
C 22.0782 -4.4629 -3.0064
O 22.377000000000002 0.3317 -1.3674
H 21.5455 -6.3455 -2.0422
H 23.2225 -5.8314 -1.7513
H 22.7584 -6.5011 -3.3259
H 16.5328 2.61 2.8094
H 17.1759 4.1001 2.1288
H 17.3099 3.1357 -0.1232
H 16.5839 1.6247 0.4294
H 18.542 1.2293 1.9418
H 19.2786 2.7375 1.3741
H 19.3841 1.8115 -0.949
H 18.6367 0.3082 -0.3822
H 20.612099999999998 -0.1101 1.1112
H 21.332900000000002 1.411 0.5809
H 19.964199999999998 -1.5868 -0.8673
H 22.1238 -1.6647 -2.8797
H 20.4479 -2.1641 -3.1341
H 20.7053 -3.9496 -1.4045
H 22.3759 -3.4339 -1.1171
H 21.298099999999998 -4.5494 -3.7677
H 22.9683 -4.038 -3.4785
