75
F38_F4_F1_F5_F9_F35
N 6.5369 0.3274 -1.1837
C 7.2435 1.5776 -1.0675
C 6.8774 -0.5644 -2.2627
H 8.3071 1.3899 -0.9071
H 6.881 2.1916 -0.2384
H 7.1249 2.1581 -1.9848
H 7.9364 -0.8251 -2.2088
H 6.6846 -0.0783 -3.2213
H 6.3057 -1.4963 -2.2368
C 12.4094 -1.2591 -1.4908
C 12.1357 -1.6036 -0.1702
C 11.373999999999999 -1.1545 -2.432
C 10.8169 -1.8537 0.2475
C 10.0494 -1.4039 -2.0202
C 9.7397 -1.758 -0.6763
N 13.7127 -1.0563 -1.7161
S 13.5535 -1.6749 0.8157
C 14.459900000000001 -1.2327 -0.6117
H 11.5775 -0.9013 -3.4015
H 10.649799999999999 -2.1045 1.2244
H 9.3071 -1.3233 -2.7188
N 15.459900000000001 -1.0549 -0.7103
C 16.4075 -1.1772 0.2523
O 16.1387 -1.4996 1.4339
C 17.8265 -0.9304 -0.0912
C 18.4096 0.3041 0.6508
H 15.7834 -0.8048 -1.5905
H 17.9251 -0.7816 -1.1703
H 18.4048 -1.8209 0.1705
H 17.8268 1.1946 0.3974
H 18.299300000000002 0.1491 1.7283
C 22.502000000000002 1.0354 -0.3588
C 22.1654 0.551 0.925
C 21.4765 1.2778 -1.2995
C 20.8087 0.3151 1.2481
C 20.131800000000002 1.0405 -0.9679
C 19.7776 0.5532 0.3099
H 21.699 1.6292 -2.2325
H 20.5687 -0.0373 2.1765
H 19.4096 1.2292 -1.6678
O 23.502000000000002 -2.9391 2.0505
H 24.730200000000004 -3.1549 1.947
C 32.89750000000001 -5.879 -2.4937
O 25.730200000000004 3.6951 1.572
C 27.042800000000007 3.2206 1.9053
C 27.700300000000006 2.4552 0.7286
C 29.106400000000004 1.9037 1.0854
C 29.764600000000005 1.1364 -0.093
C 31.168700000000005 0.5796 0.267
C 31.802600000000005 -0.1361 -0.8623
N 31.243800000000007 -1.2841 -1.3163
C 31.720500000000005 -2.0979 -2.3917
C 32.066700000000004 -3.5166 -1.8761
C 32.552400000000006 -4.4629 -3.0064
O 32.851200000000006 0.3317 -1.3674
H 32.01970000000001 -6.3455 -2.0422
H 33.69670000000001 -5.8314 -1.7513
H 33.232600000000005 -6.5011 -3.3259
H 27.007000000000005 2.61 2.8094
H 27.650100000000005 4.1001 2.1288
H 27.784100000000006 3.1357 -0.1232
H 27.058100000000007 1.6247 0.4294
H 29.016200000000005 1.2293 1.9418
H 29.752800000000004 2.7375 1.3741
H 29.858300000000007 1.8115 -0.949
H 29.110900000000004 0.3082 -0.3822
H 31.086300000000005 -0.1101 1.1112
H 31.807100000000005 1.411 0.5809
H 30.438400000000005 -1.5868 -0.8673
H 32.598000000000006 -1.6647 -2.8797
H 30.922100000000004 -2.1641 -3.1341
H 31.179500000000004 -3.9496 -1.4045
H 32.850100000000005 -3.4339 -1.1171
H 31.772300000000005 -4.5494 -3.7677
H 33.4425 -4.038 -3.4785
