76
F38_F4_F1_F5_F35_F25
N 6.5369 0.3274 -1.1837
C 7.2435 1.5776 -1.0675
C 6.8774 -0.5644 -2.2627
H 8.3071 1.3899 -0.9071
H 6.881 2.1916 -0.2384
H 7.1249 2.1581 -1.9848
H 7.9364 -0.8251 -2.2088
H 6.6846 -0.0783 -3.2213
H 6.3057 -1.4963 -2.2368
C 12.4094 -1.2591 -1.4908
C 12.1357 -1.6036 -0.1702
C 11.373999999999999 -1.1545 -2.432
C 10.8169 -1.8537 0.2475
C 10.0494 -1.4039 -2.0202
C 9.7397 -1.758 -0.6763
N 13.7127 -1.0563 -1.7161
S 13.5535 -1.6749 0.8157
C 14.459900000000001 -1.2327 -0.6117
H 11.5775 -0.9013 -3.4015
H 10.649799999999999 -2.1045 1.2244
H 9.3071 -1.3233 -2.7188
N 15.459900000000001 -1.0549 -0.7103
C 16.4075 -1.1772 0.2523
O 16.1387 -1.4996 1.4339
C 17.8265 -0.9304 -0.0912
C 18.4096 0.3041 0.6508
H 15.7834 -0.8048 -1.5905
H 17.9251 -0.7816 -1.1703
H 18.4048 -1.8209 0.1705
H 17.8268 1.1946 0.3974
H 18.299300000000002 0.1491 1.7283
C 22.502000000000002 1.0354 -0.3588
C 22.1654 0.551 0.925
C 21.4765 1.2778 -1.2995
C 20.8087 0.3151 1.2481
C 20.131800000000002 1.0405 -0.9679
C 19.7776 0.5532 0.3099
H 21.699 1.6292 -2.2325
H 20.5687 -0.0373 2.1765
H 19.4096 1.2292 -1.6678
C 30.669300000000003 -5.879 -2.4937
O 23.502000000000002 3.6951 1.572
C 24.814600000000006 3.2206 1.9053
C 25.472100000000005 2.4552 0.7286
C 26.878200000000003 1.9037 1.0854
C 27.536400000000004 1.1364 -0.093
C 28.940500000000004 0.5796 0.267
C 29.574400000000004 -0.1361 -0.8623
N 29.015600000000006 -1.2841 -1.3163
C 29.492300000000004 -2.0979 -2.3917
C 29.838500000000003 -3.5166 -1.8761
C 30.324200000000005 -4.4629 -3.0064
O 30.623000000000005 0.3317 -1.3674
H 29.791500000000006 -6.3455 -2.0422
H 31.468500000000006 -5.8314 -1.7513
H 31.004400000000004 -6.5011 -3.3259
H 24.778800000000004 2.61 2.8094
H 25.421900000000004 4.1001 2.1288
H 25.555900000000005 3.1357 -0.1232
H 24.829900000000006 1.6247 0.4294
H 26.788000000000004 1.2293 1.9418
H 27.524600000000003 2.7375 1.3741
H 27.630100000000006 1.8115 -0.949
H 26.882700000000003 0.3082 -0.3822
H 28.858100000000004 -0.1101 1.1112
H 29.578900000000004 1.411 0.5809
H 28.210200000000004 -1.5868 -0.8673
H 30.369800000000005 -1.6647 -2.8797
H 28.693900000000003 -2.1641 -3.1341
H 28.951300000000003 -3.9496 -1.4045
H 30.621900000000004 -3.4339 -1.1171
H 29.544100000000004 -4.5494 -3.7677
H 31.2143 -4.038 -3.4785
N 33.11120000000001 1.3119 2.3492
H 32.468500000000006 1.5171 3.0466
H 34.04140000000001 1.5619 2.4652
