12
#######
O 5.0335 -1.4963 -0.5423
C 6.4535 -1.5749 -0.7185
C 6.775 -1.7276 -2.2225
C 8.2907 -1.8202 -2.5058
H 6.8411 -2.4386 -0.1724
H 6.919 -0.663 -0.3361
H 6.3667 -0.8701 -2.764
H 6.2895 -2.6308 -2.6017
H 8.7211 -2.6859 -1.9984
H 8.7986 -0.9171 -2.1614
H 8.4593 -1.9265 -3.579
H 4.2748 -1.3592 0.5847