40
F4_F1_F55
C -3.7933 -1.2591 -1.4908
C -4.067 -1.6036 -0.1702
C -4.8287 -1.1545 -2.432
C -5.3858 -1.8537 0.2475
C -6.1533 -1.4039 -2.0202
C -6.463 -1.758 -0.6763
N -2.49 -1.0563 -1.7161
S -2.6492 -1.6749 0.8157
C -1.7428 -1.2327 -0.6117
H -4.6252 -0.9013 -3.4015
H -5.5529 -2.1045 1.2244
H -6.8956 -1.3233 -2.7188
H -7.7509 -1.998 -0.2865
N -0.7428 -1.0549 -0.7103
C 0.20479999999999998 -1.1772 0.2523
O -0.064 -1.4996 1.4339
C 1.6238 -0.9304 -0.0912
C 2.2069 0.3041 0.6508
H -0.4193 -0.8048 -1.5905
H 1.7224 -0.7816 -1.1703
H 2.2021 -1.8209 0.1705
H 1.6240999999999999 1.1946 0.3974
H 2.0966 0.1491 1.7283
C 6.2621 0.7347 -0.8172
C 5.2554 1.5144 -0.2177
C 5.9385 -0.5071 -1.3916
C 3.9267000000000003 1.0511 -0.1928
C 4.6097 -0.9698 -1.3652
C 3.5854000000000004 -0.1989 -0.7636
O 5.5760000000000005 2.7139 0.3337
O 7.542000000000001 1.1896 -0.8366
C 8.0018 2.4354 -0.2877
C 6.8875 3.2997 0.3747
H 6.6679 -1.0753 -1.8284
H 3.2069 1.633 0.2429
H 4.3967 -1.8769 -1.7874
H 8.4712 2.9994 -1.0966
H 8.7748 2.2062 0.449
H 7.1365 3.4787 1.4228
H 6.8312 4.2701 -0.1233
