41
F4_F36_F5_F2
C -3.7933 -1.2591 -1.4908
C -4.067 -1.6036 -0.1702
C -4.8287 -1.1545 -2.432
C -5.3858 -1.8537 0.2475
C -6.1533 -1.4039 -2.0202
C -6.463 -1.758 -0.6763
N -2.49 -1.0563 -1.7161
S -2.6492 -1.6749 0.8157
C -1.7428 -1.2327 -0.6117
H -4.6252 -0.9013 -3.4015
H -5.5529 -2.1045 1.2244
H -6.8956 -1.3233 -2.7188
H -7.7509 -1.998 -0.2865
C 0.16710000000000014 1.0327 -1.0278
N -0.056399999999999784 -0.3781 -0.7967
C 0.9866000000000001 -1.2754 -0.7274
O 0.7627000000000002 -2.4978 -0.536
C 2.4347000000000003 -0.9469 -0.8693
C 3.1831 -1.036 0.4894
H -0.7427999999999999 1.6364 -0.97
H 0.8516000000000001 1.4312 -0.2757
H 0.5972000000000002 1.1842 -2.02
H 2.8775000000000004 -1.6462 -1.5844
H 2.5849 0.0502 -1.2835
H 3.1060000000000003 -2.05 0.8925
H 2.6824000000000003 -0.3725 1.2013
C 7.275500000000001 1.0354 -0.3588
C 6.9389 0.551 0.925
C 6.25 1.2778 -1.2995
C 5.5822 0.3151 1.2481
C 4.9053 1.0405 -0.9679
C 4.5511 0.5532 0.3099
H 7.9613 0.3316 1.8022
H 6.4725 1.6292 -2.2325
H 5.3422 -0.0373 2.1765
H 4.1831 1.2292 -1.6678
O 9.6038 0.3316 1.8022
C 9.5496 -0.1508 3.1489
H 10.5637 -0.2004 3.5454
H 8.9613 0.5259 3.7707
H 9.1116 -1.1498 3.1765
