58
F50_F4_F6_F5_F40_F11
C -7.6964 -3.3071 -0.5026
C -7.5919 -1.8719 0.0625
H -8.7016 -3.6971 -0.3315
H -7.5024 -3.3076 -1.5774
H -6.9821 -3.9715 -0.0125
H -8.3821 -1.2729 -0.3988
H -7.7939 -1.8921 1.1367
C -2.8798 -1.2591 -1.4908
C -3.1535 -1.6036 -0.1702
C -3.9152000000000005 -1.1545 -2.432
C -4.4723 -1.8537 0.2475
C -5.2398 -1.4039 -2.0202
C -5.5495 -1.758 -0.6763
N -1.5765000000000002 -1.0563 -1.7161
S -1.7357 -1.6749 0.8157
C -0.8292999999999999 -1.2327 -0.6117
H -3.7117000000000004 -0.9013 -3.4015
H -4.6394 -2.1045 1.2244
H -5.9821 -1.3233 -2.7188
C 2.4019000000000004 -2.5141 -0.7382
C 2.3264 -2.9815 0.735
N 1.1504 -2.4707 1.4256
C 1.2091 -1.5278 2.4314
O 0.17070000000000007 -1.2281 3.0748
C 2.4268 -0.781 2.8637
H 3.3296 -2.8669 -1.1929
H 1.5632000000000001 -2.9129 -1.3116
H 2.3791 -1.4245 -0.792
H 3.2575000000000003 -2.6878 1.2157
H 2.3381 -4.0742 0.7577
H 3.1771000000000003 -1.5006 3.1989
H 2.2047 -0.1571 3.7356
C 7.422000000000001 1.0354 -0.3588
C 7.0854 0.551 0.925
C 6.3965000000000005 1.2778 -1.2995
C 5.7287 0.3151 1.2481
C 5.0518 1.0405 -0.9679
C 4.6976 0.5532 0.3099
H 6.619000000000001 1.6292 -2.2325
H 5.488700000000001 -0.0373 2.1765
H 4.3296 1.2292 -1.6678
N 9.1268 -0.6826 -2.4804
C 10.3767 -0.7737 -3.155
H 8.422 -1.2486 -2.8342
H 10.283000000000001 -1.4935 -3.9684
H 10.655100000000001 0.1918 -3.5804
H 11.1557 -1.1225 -2.4751
O 12.1557 -1.4963 -0.5423
C 13.5757 -1.5749 -0.7185
C 13.8972 -1.7276 -2.2225
C 15.412899999999999 -1.8202 -2.5058
H 13.9633 -2.4386 -0.1724
H 14.0412 -0.663 -0.3361
H 13.4889 -0.8701 -2.764
H 13.4117 -2.6308 -2.6017
H 15.8433 -2.6859 -1.9984
H 15.9208 -0.9171 -2.1614
H 15.5815 -1.9265 -3.579
