69
F42_F4_F6_F5_F40_F27
C -7.846 -0.4564 -1.3096
C -8.4274 -1.4295 -0.2461
C -7.5076 -2.6425 0.0665
C -8.1424 -3.6273 1.0842
C -7.2278 -4.8317 1.4014
H -8.5889 0.3172 -1.5224
H -7.7042 -1.0134 -2.2404
H -8.6319 -0.8815 0.6777
H -9.3839 -1.8037 -0.6223
H -6.5599 -2.2795 0.4733
H -7.2965 -3.1781 -0.8634
H -8.3557 -3.0979 2.0169
H -9.0873 -4.0048 0.6838
H -7.7208 -5.4903 2.119
H -7.0184 -5.4009 0.4936
H -6.2846 -4.4909 1.8332
C -2.1823 -1.2591 -1.4908
C -2.4560000000000004 -1.6036 -0.1702
C -3.2177000000000007 -1.1545 -2.432
C -3.7748 -1.8537 0.2475
C -4.5423 -1.4039 -2.0202
C -4.852 -1.758 -0.6763
N -0.8790000000000004 -1.0563 -1.7161
S -1.0382000000000002 -1.6749 0.8157
C -0.13180000000000014 -1.2327 -0.6117
H -3.0142000000000007 -0.9013 -3.4015
H -3.9419000000000004 -2.1045 1.2244
H -5.2846 -1.3233 -2.7188
C 3.0994 -2.5141 -0.7382
C 3.0239 -2.9815 0.735
N 1.8478999999999999 -2.4707 1.4256
C 1.9065999999999999 -1.5278 2.4314
O 0.8681999999999999 -1.2281 3.0748
C 3.1243 -0.781 2.8637
H 4.0271 -2.8669 -1.1929
H 2.2607 -2.9129 -1.3116
H 3.0766 -1.4245 -0.792
H 3.955 -2.6878 1.2157
H 3.0355999999999996 -4.0742 0.7577
H 3.8746 -1.5006 3.1989
H 2.9021999999999997 -0.1571 3.7356
C 8.1195 1.0354 -0.3588
C 7.7829 0.551 0.925
C 7.094 1.2778 -1.2995
C 6.4262 0.3151 1.2481
C 5.7493 1.0405 -0.9679
C 5.3951 0.5532 0.3099
H 7.3165000000000004 1.6292 -2.2325
H 6.1862 -0.0373 2.1765
H 5.0271 1.2292 -1.6678
N 9.824300000000001 -0.6826 -2.4804
C 11.074200000000001 -0.7737 -3.155
H 9.1195 -1.2486 -2.8342
H 10.9805 -1.4935 -3.9684
H 11.352599999999999 0.1918 -3.5804
H 11.853200000000001 -1.1225 -2.4751
C 13.530500000000002 -1.765 1.6205
C 14.725400000000002 -0.9944 2.0677
C 17.249200000000002 -0.5753 1.7363
O 18.3977 -1.0065 0.9941
C 16.0148 -1.3982 1.301
O 13.153200000000002 -2.6465 2.4316
H 14.904700000000002 -1.1731 3.1334
H 14.531800000000002 0.0754 1.9702
H 17.432100000000002 -0.7204 2.8042
H 17.070300000000003 0.4858 1.5435
H 16.2203 -2.4573 1.482
H 15.874800000000002 -1.265 0.2261
H 12.853200000000003 -1.5876 0.4342
