15
#######
N 1.9465 -1.6512 0.2454
C 2.6512 -1.3029 -0.8614
O 2.0905 -1.0738 -1.9598
C 4.1359 -1.1935 -0.7731
C 4.8438 -2.1652 -1.7721
C 6.3843 -2.2065 -1.63
H 2.472 -1.8111 1.0454
H 4.4246 -1.5522 0.2217
H 4.4699 -3.1797 -1.6024
H 4.5988 -1.8984 -2.8035
H 6.6662 -2.486 -0.613
H 6.7982 -2.9443 -2.32
H 6.8196 -1.2337 -1.8647
H 4.5703 0.2381 -0.9089
H 0.6092 -1.8061 0.3916