67
F14_F4_F1_F5_F9_F11
C -11.3604 -1.6657 0.9424
C -10.6002 -0.4179 0.4402
C -10.5366 -0.3368 -1.1093
N -8.4469 1.0078 -1.2082
C -6.0558 0.4571 -1.1594
C -5.545 -0.8561 -0.505
C -7.4121 0.3064 -1.7301
O -7.5758 -0.4767 -2.6964
C -9.8082 0.9274 -1.6364
H -12.3908 -1.6555 0.5814
H -11.3746 -1.6746 2.0339
H -10.8701 -2.5766 0.5934
H -9.5859 -0.4457 0.8472
H -11.0986 0.4738 0.83
H -11.5556 -0.3312 -1.5061
H -10.0342 -1.2265 -1.4982
H -8.2545 1.5947 -0.4596
H -5.3809 0.7655 -1.9619
H -6.0552 1.2495 -0.4046
H -5.4967 -1.6516 -1.2543
H -6.2739 -1.1717 0.2481
H -10.3262 1.817 -1.2715
H -9.8591 0.9489 -2.7286
C -1.2785999999999995 -1.2591 -1.4908
C -1.5522999999999998 -1.6036 -0.1702
C -2.314 -1.1545 -2.432
C -2.8710999999999993 -1.8537 0.2475
C -3.6385999999999994 -1.4039 -2.0202
C -3.9482999999999997 -1.758 -0.6763
N 0.024700000000000166 -1.0563 -1.7161
S -0.13449999999999962 -1.6749 0.8157
C 0.7719000000000005 -1.2327 -0.6117
H -2.1105 -0.9013 -3.4015
H -3.0382 -2.1045 1.2244
H -4.3809 -1.3233 -2.7188
N 1.7719000000000005 -1.0549 -0.7103
C 2.7195000000000005 -1.1772 0.2523
O 2.4507000000000003 -1.4996 1.4339
C 4.1385000000000005 -0.9304 -0.0912
C 4.7216000000000005 0.3041 0.6508
H 2.0954000000000006 -0.8048 -1.5905
H 4.2371 -0.7816 -1.1703
H 4.716800000000001 -1.8209 0.1705
H 4.1388 1.1946 0.3974
H 4.6113 0.1491 1.7283
C 8.814 1.0354 -0.3588
C 8.4774 0.551 0.925
C 7.788500000000001 1.2778 -1.2995
C 7.1207 0.3151 1.2481
C 6.4438 1.0405 -0.9679
C 6.089600000000001 0.5532 0.3099
H 8.011000000000001 1.6292 -2.2325
H 6.880700000000001 -0.0373 2.1765
H 5.7216000000000005 1.2292 -1.6678
O 9.814 -2.9391 2.0505
H 11.0422 -3.1549 1.947
O 12.0422 -1.4963 -0.5423
C 13.4622 -1.5749 -0.7185
C 13.7837 -1.7276 -2.2225
C 15.299399999999999 -1.8202 -2.5058
H 13.849799999999998 -2.4386 -0.1724
H 13.927699999999998 -0.663 -0.3361
H 13.375399999999999 -0.8701 -2.764
H 13.2982 -2.6308 -2.6017
H 15.7298 -2.6859 -1.9984
H 15.8073 -0.9171 -2.1614
H 15.468 -1.9265 -3.579
